LIG(A-307)
  PyMOL3.0          3D                             0

 43 47  0  0  0  0  0  0  0  0999 V2000
   -8.4778   -0.1796  -21.3959 O   0  0  0  0  0  0  0  0  0  0  0  0
   -8.0436   -1.3030  -21.5841 C   0  0  0  0  0  0  0  0  0  0  0  0
   -8.6227   -2.3628  -22.5077 C   0  0  0  0  0  0  0  0  0  0  0  0
   -9.1443   -1.9307  -23.9026 C   0  0  0  0  0  0  0  0  0  0  0  0
  -10.0545   -2.8541  -22.1805 C   0  0  0  0  0  0  0  0  0  0  0  0
  -10.6088   -2.1965  -23.4677 C   0  0  0  0  0  0  0  0  0  0  0  0
  -11.5949   -1.0443  -23.3624 C   0  0  0  0  0  0  0  0  0  0  0  0
  -11.1800    0.2641  -23.6025 C   0  0  0  0  0  0  0  0  0  0  0  0
  -12.0563    1.3320  -23.4726 C   0  0  0  0  0  0  0  0  0  0  0  0
  -13.3670    1.1117  -23.1076 C   0  0  0  0  0  0  0  0  0  0  0  0
  -13.8159   -0.1769  -22.8753 C   0  0  0  0  0  0  0  0  0  0  0  0
  -12.9286   -1.2350  -22.9989 C   0  0  0  0  0  0  0  0  0  0  0  0
  -13.5376   -2.8349  -22.6921 Cl  0  0  0  0  0  0  0  0  0  0  0  0
   -6.8870   -1.8439  -21.0227 N   0  0  0  0  0  0  0  0  0  0  0  0
   -6.6062   -3.1093  -21.5384 C   0  0  0  0  0  0  0  0  0  0  0  0
   -5.6358   -3.8016  -21.2465 O   0  0  0  0  0  0  0  0  0  0  0  0
   -7.5976   -3.4014  -22.4143 N   0  0  0  0  0  0  0  0  0  0  0  0
   -6.1267   -1.1953  -19.9893 C   0  0  0  0  0  0  0  0  0  0  0  0
   -6.5157   -1.2780  -18.6548 C   0  0  0  0  0  0  0  0  0  0  0  0
   -6.0157   -0.5153  -17.6739 N   0  0  0  0  0  0  0  0  0  0  0  0
   -5.0865    0.3763  -18.0055 C   0  0  0  0  0  0  0  0  0  0  0  0
   -4.5942    0.5685  -19.3222 C   0  0  0  0  0  0  0  0  0  0  0  0
   -5.1360   -0.2456  -20.3547 C   0  0  0  0  0  0  0  0  0  0  0  0
   -3.5723    1.4958  -19.6415 C   0  0  0  0  0  0  0  0  0  0  0  0
   -3.1064    1.6039  -20.9211 C   0  0  0  0  0  0  0  0  0  0  0  0
   -3.6318    0.8131  -21.9345 C   0  0  0  0  0  0  0  0  0  0  0  0
   -4.6244   -0.0883  -21.6700 C   0  0  0  0  0  0  0  0  0  0  0  0
   -8.9371   -0.8789  -24.1490 H   0  0  0  0  0  0  0  0  0  0  0  0
   -8.8005   -2.5747  -24.7255 H   0  0  0  0  0  0  0  0  0  0  0  0
  -10.1552   -3.9494  -22.1622 H   0  0  0  0  0  0  0  0  0  0  0  0
  -10.4679   -2.4324  -21.2524 H   0  0  0  0  0  0  0  0  0  0  0  0
  -11.0342   -2.9796  -24.1124 H   0  0  0  0  0  0  0  0  0  0  0  0
  -10.1573    0.4505  -23.8953 H   0  0  0  0  0  0  0  0  0  0  0  0
  -11.7106    2.3382  -23.6578 H   0  0  0  0  0  0  0  0  0  0  0  0
  -14.0449    1.9459  -23.0027 H   0  0  0  0  0  0  0  0  0  0  0  0
  -14.8451   -0.3560  -22.6011 H   0  0  0  0  0  0  0  0  0  0  0  0
   -7.6257   -4.2474  -22.9467 H   0  0  0  0  0  0  0  0  0  0  0  0
   -7.2702   -2.0051  -18.3936 H   0  0  0  0  0  0  0  0  0  0  0  0
   -4.6793    0.9956  -17.2200 H   0  0  0  0  0  0  0  0  0  0  0  0
   -3.1577    2.1230  -18.8662 H   0  0  0  0  0  0  0  0  0  0  0  0
   -2.3219    2.3112  -21.1467 H   0  0  0  0  0  0  0  0  0  0  0  0
   -3.2526    0.9113  -22.9409 H   0  0  0  0  0  0  0  0  0  0  0  0
   -5.0253   -0.6894  -22.4726 H   0  0  0  0  0  0  0  0  0  0  0  0
  1  2  2  0  0  0  0
  2  3  1  0  0  0  0
  2 14  1  0  0  0  0
  3  4  1  0  0  0  0
  3  5  1  0  0  0  0
  3 17  1  0  0  0  0
  4  6  1  0  0  0  0
  4 28  1  0  0  0  0
  4 29  1  0  0  0  0
  5  6  1  0  0  0  0
  5 30  1  0  0  0  0
  5 31  1  0  0  0  0
  6  7  1  0  0  0  0
  6 32  1  0  0  0  0
  7  8  2  0  0  0  0
  7 12  1  0  0  0  0
  8  9  1  0  0  0  0
  8 33  1  0  0  0  0
  9 10  2  0  0  0  0
  9 34  1  0  0  0  0
 10 11  1  0  0  0  0
 10 35  1  0  0  0  0
 11 12  2  0  0  0  0
 11 36  1  0  0  0  0
 12 13  1  0  0  0  0
 14 15  1  0  0  0  0
 14 18  1  0  0  0  0
 15 16  2  0  0  0  0
 15 17  1  0  0  0  0
 17 37  1  0  0  0  0
 18 19  2  0  0  0  0
 18 23  1  0  0  0  0
 19 20  1  0  0  0  0
 19 38  1  0  0  0  0
 20 21  2  0  0  0  0
 21 22  1  0  0  0  0
 21 39  1  0  0  0  0
 22 23  2  0  0  0  0
 22 24  1  0  0  0  0
 23 27  1  0  0  0  0
 24 25  2  0  0  0  0
 24 40  1  0  0  0  0
 25 26  1  0  0  0  0
 25 41  1  0  0  0  0
 26 27  2  0  0  0  0
 26 42  1  0  0  0  0
 27 43  1  0  0  0  0
M  END
$$$$
