predicted
     RDKit          3D

 18 19  0  0  0  0  0  0  0  0999 V2000
    5.8270   -2.6000   26.1080 O   0  0  0  0  0  0  0  0  0  0  0  0
    5.9970   -4.6880   19.3920 O   0  0  0  0  0  0  0  0  0  0  0  0
    9.6940   -5.2900   27.6210 S   0  0  0  0  0  0  0  0  0  0  0  0
    6.5930   -3.3970   25.6120 C   0  0  0  0  0  0  0  0  0  0  0  0
    6.7020   -3.7520   19.6890 C   0  0  0  0  0  0  0  0  0  0  0  0
    4.9960   -5.6230   23.1700 C   0  0  0  0  0  3  0  0  0  0  0  0
    5.3650   -5.0740   24.3330 C   0  0  0  0  0  3  0  0  0  0  0  0
    5.4830   -5.0840   22.0100 C   0  0  0  0  0  3  0  0  0  0  0  0
    6.6940   -3.4340   23.2540 C   0  0  0  0  0  3  0  0  0  0  0  0
    6.2180   -3.9980   24.3290 C   0  0  0  0  0  0  0  0  0  0  0  0
    6.3400   -3.9870   22.0680 C   0  0  0  0  0  0  0  0  0  0  0  0
    6.8720   -3.3630   20.9350 N   0  0  0  0  0  2  0  0  0  0  0  0
    7.8240   -3.6580   26.0580 N   0  0  0  0  0  0  0  0  0  0  0  0
    7.4370   -2.9000   18.6700 C   0  0  0  0  0  1  0  0  0  0  0  0
    8.3590   -4.3400   28.2320 C   0  0  0  0  0  2  0  0  0  0  0  0
    9.0260   -5.7360   26.1050 C   0  0  0  0  0  2  0  0  0  0  0  0
    8.2540   -3.1550   27.2960 C   0  0  0  0  0  2  0  0  0  0  0  0
    8.7660   -4.4790   25.3330 C   0  0  0  0  0  2  0  0  0  0  0  0
 12  5  1  0
 12 11  1  0
 14  5  1  0
  2  5  2  0
 16 18  1  0
 16  3  1  0
 15 17  1  0
 15  3  1  0
 17 13  1  0
 11  8  2  0
 11  9  1  0
  8  6  1  0
  6  7  2  0
  7 10  1  0
 10  9  2  0
 10  4  1  0
  4 13  1  0
  4  1  2  0
 18 13  1  0
M  END
