predicted
     RDKit          3D

 31 34  0  0  0  0  0  0  0  0999 V2000
   13.8750   -1.4190   21.4290 Cl  0  0  0  0  0  0  0  0  0  0  0  0
    9.8900   -2.7630   26.5290 O   0  0  0  0  0  0  0  0  0  0  0  0
    6.8800   -3.9510   25.5930 O   0  0  0  0  0  0  0  0  0  0  0  0
    9.0900    0.6280   21.5260 O   0  0  0  0  0  0  0  0  0  0  0  0
    6.8570    0.3260   17.7130 N   0  0  0  0  0  0  0  0  0  0  0  0
    9.6500   -2.1610   25.4920 C   0  0  0  0  0  0  0  0  0  0  0  0
    7.1050   -3.2230   26.5140 C   0  0  0  0  0  0  0  0  0  0  0  0
    8.5310   -0.4010   21.7950 C   0  0  0  0  0  0  0  0  0  0  0  0
    7.4170   -0.2840   18.7620 C   0  0  0  0  0  3  0  0  0  0  0  0
   12.9610   -2.1200   23.8130 C   0  0  0  0  0  3  0  0  0  0  0  0
   11.9870   -2.3290   24.7480 C   0  0  0  0  0  3  0  0  0  0  0  0
   11.3230   -1.3530   22.2870 C   0  0  0  0  0  3  0  0  0  0  0  0
    4.0130    1.2880   21.6850 C   0  0  0  0  0  3  0  0  0  0  0  0
    3.4350    1.9140   20.5910 C   0  0  0  0  0  0  0  0  0  0  0  0
   12.6150   -1.6340   22.5820 C   0  0  0  0  0  0  0  0  0  0  0  0
   10.6660   -2.0070   24.4680 C   0  0  0  0  0  0  0  0  0  0  0  0
   10.3160   -1.4880   23.2450 C   0  0  0  0  0  0  0  0  0  0  0  0
    5.7480    0.9930   17.8610 C   0  0  0  0  0  3  0  0  0  0  0  0
    3.9990    1.8370   19.3280 C   0  0  0  0  0  3  0  0  0  0  0  0
    5.1490    0.5720   21.5430 C   0  0  0  0  0  3  0  0  0  0  0  0
    6.9000   -0.2250   20.0340 C   0  0  0  0  0  0  0  0  0  0  0  0
    5.1390    1.1120   19.1370 C   0  0  0  0  0  0  0  0  0  0  0  0
    5.7200    0.4870   20.2490 C   0  0  0  0  0  0  0  0  0  0  0  0
    7.4850   -0.9230   21.1070 N   0  0  0  0  0  2  0  0  0  0  0  0
    7.2650   -3.6330   27.7510 N   0  0  0  0  0  2  0  0  0  0  0  0
    8.4200   -1.6320   25.2710 N   0  0  0  0  0  0  0  0  0  0  0  0
    7.1190   -4.9900   28.0970 C   0  0  0  0  0  1  0  0  0  0  0  0
    7.4170   -1.7810   26.3020 C   0  0  0  0  0  2  0  0  0  0  0  0
    8.1160   -0.8600   24.1430 C   0  0  0  0  0  2  0  0  0  0  0  0
    8.8920   -1.2560   22.9120 C   0  0  0  0  0  3  0  0  0  0  0  0
    2.3270    2.5820   20.7700 F   0  0  0  0  0  0  0  0  0  0  0  0
  2  6  2  0
  6 26  1  0
  6 16  1  0
 26 28  1  0
 26 29  1  0
 28  7  1  0
  7  3  2  0
  7 25  1  0
 25 27  1  0
 16 11  2  0
 16 17  1  0
 11 10  1  0
 10 15  2  0
 15  1  1  0
 15 12  1  0
 12 17  2  0
 17 30  1  0
 30 29  1  0
 30  8  1  0
  8  4  2  0
  8 24  1  0
 24 21  1  0
 21 23  1  0
 21  9  2  0
 23 20  2  0
 23 22  1  0
 20 13  1  0
 13 14  2  0
 14 31  1  0
 14 19  1  0
 19 22  2  0
 22 18  1  0
 18  5  2  0
  5  9  1  0
M  END
