predicted
     RDKit          3D

 15 16  0  0  0  0  0  0  0  0999 V2000
    9.2370    1.5130   20.8510 O   0  0  0  0  0  0  0  0  0  0  0  0
    6.6380    0.4270   17.5270 N   0  0  0  0  0  0  0  0  0  0  0  0
    8.9740    0.4590   21.3300 C   0  0  0  0  0  0  0  0  0  0  0  0
    5.4600    0.9810   17.7780 C   0  0  0  0  0  3  0  0  0  0  0  0
    7.4460    0.0050   18.5450 C   0  0  0  0  0  3  0  0  0  0  0  0
    5.0250    1.2040   19.0680 C   0  0  0  0  0  3  0  0  0  0  0  0
    7.0670    0.1860   19.8530 C   0  0  0  0  0  0  0  0  0  0  0  0
    5.8240    0.7810   20.1080 C   0  0  0  0  0  0  0  0  0  0  0  0
    7.9060   -0.2950   20.8950 N   0  0  0  0  0  2  0  0  0  0  0  0
    5.3570    1.0380   21.5150 C   0  0  0  0  0  1  0  0  0  0  0  0
   12.1610   -0.8650   22.8010 C   0  0  0  0  0  2  0  0  0  0  0  0
   10.3350    0.7920   23.4670 C   0  0  0  0  0  2  0  0  0  0  0  0
   11.2740    0.2350   22.3950 C   0  0  0  0  0  3  0  0  0  0  0  0
    9.7910   -0.1870   22.4480 C   0  0  0  0  0  3  0  0  0  0  0  0
   13.2390   -0.8320   22.0820 F   0  0  0  0  0  0  0  0  0  0  0  0
 15 11  1  0
 11 13  1  0
 13 12  1  0
 13 14  1  0
 12 14  1  0
 14  3  1  0
  3  1  2  0
  3  9  1  0
  9  7  1  0
  7  8  2  0
  7  5  1  0
  8 10  1  0
  8  6  1  0
  5  2  2  0
  2  4  1  0
  4  6  2  0
M  END
