predicted
     RDKit          3D

 16 17  0  0  0  0  0  0  0  0999 V2000
    5.9580   -4.6110   19.5310 O   0  0  0  0  0  0  0  0  0  0  0  0
    6.5490   -3.3800   26.7850 O   0  0  0  0  0  0  0  0  0  0  0  0
    6.7790   -3.7740   19.8420 C   0  0  0  0  0  0  0  0  0  0  0  0
    7.6390   -3.9660   26.6800 C   0  0  0  0  0  0  0  0  0  0  0  0
    5.4470   -5.9530   23.3370 C   0  0  0  0  0  3  0  0  0  0  0  0
    5.7550   -5.2330   22.1930 C   0  0  0  0  0  3  0  0  0  0  0  0
    6.1910   -5.7660   24.4740 C   0  0  0  0  0  3  0  0  0  0  0  0
    7.5880   -4.1700   23.3340 C   0  0  0  0  0  3  0  0  0  0  0  0
    6.8250   -4.3600   22.2070 C   0  0  0  0  0  0  0  0  0  0  0  0
    7.2490   -4.8870   24.4440 C   0  0  0  0  0  0  0  0  0  0  0  0
    7.1840   -3.5950   21.0880 N   0  0  0  0  0  2  0  0  0  0  0  0
    8.0140   -4.6980   25.5910 N   0  0  0  0  0  0  0  0  0  0  0  0
    7.3870   -2.8250   18.8200 C   0  0  0  0  0  1  0  0  0  0  0  0
    8.7320   -3.9670   27.7090 C   0  0  0  0  0  2  0  0  0  0  0  0
    9.2800   -5.2430   25.7910 C   0  0  0  0  0  2  0  0  0  0  0  0
    9.7650   -4.8190   27.1130 C   0  0  0  0  0  2  0  0  0  0  0  0
 11  3  1  0
 11  9  1  0
 13  3  1  0
  1  3  2  0
 14  4  1  0
 14 16  1  0
  4 12  1  0
  4  2  2  0
  9  6  2  0
  9  8  1  0
  6  5  1  0
  5  7  2  0
  7 10  1  0
 10  8  2  0
 10 12  1  0
 15 16  1  0
 15 12  1  0
M  END
