predicted
     RDKit          3D

 22 24  0  0  0  0  0  0  0  0999 V2000
    8.7010    0.8750   21.2060 O   0  0  0  0  0  0  0  0  0  0  0  0
    6.4400    0.7430   17.6790 N   0  0  0  0  0  0  0  0  0  0  0  0
    7.2680   -0.0480   18.2830 N   0  0  0  0  0  0  0  0  0  0  0  0
    8.4910   -0.3260   21.3730 C   0  0  0  0  0  0  0  0  0  0  0  0
   13.1780    0.4670   23.6800 C   0  0  0  0  0  3  0  0  0  0  0  0
   13.8090   -0.3020   22.7170 C   0  0  0  0  0  3  0  0  0  0  0  0
   11.8120    0.3490   23.8890 C   0  0  0  0  0  3  0  0  0  0  0  0
   11.7350   -1.3490   22.2190 C   0  0  0  0  0  3  0  0  0  0  0  0
    3.6690    2.1750   19.6510 C   0  0  0  0  0  3  0  0  0  0  0  0
    3.9750    1.5830   20.8190 C   0  0  0  0  0  3  0  0  0  0  0  0
   13.1170   -1.2180   22.0080 C   0  0  0  0  0  0  0  0  0  0  0  0
   11.1320   -0.5630   23.1790 C   0  0  0  0  0  0  0  0  0  0  0  0
    4.4180    1.9560   18.5170 C   0  0  0  0  0  3  0  0  0  0  0  0
    5.0810    0.7690   20.9240 C   0  0  0  0  0  3  0  0  0  0  0  0
    5.5030    1.1370   18.5550 C   0  0  0  0  0  0  0  0  0  0  0  0
    5.8220    0.5390   19.7880 C   0  0  0  0  0  0  0  0  0  0  0  0
    8.9390   -1.0610   22.4510 N   0  0  0  0  0  0  0  0  0  0  0  0
    6.9150   -0.1960   19.5300 N   0  0  0  0  0  0  0  0  0  0  0  0
    8.7280   -2.4240   22.5810 C   0  0  0  0  0  1  0  0  0  0  0  0
    9.6220   -0.5670   23.5170 C   0  0  0  0  0  2  0  0  0  0  0  0
    7.6500   -1.0460   20.4620 C   0  0  0  0  0  2  0  0  0  0  0  0
   13.7220   -1.9340   21.0680 F   0  0  0  0  0  0  0  0  0  0  0  0
  1  4  2  0
  4 21  1  0
  4 17  1  0
 21 18  1  0
 18 16  1  0
 18  3  1  0
 16 14  2  0
 16 15  1  0
 14 10  1  0
 10  9  2  0
  9 13  1  0
 13 15  2  0
 15  2  1  0
  2  3  2  0
 17 19  1  0
 17 20  1  0
 20 12  1  0
 12  8  2  0
 12  7  1  0
  8 11  1  0
 11 22  1  0
 11  6  2  0
  6  5  1  0
  5  7  2  0
M  END
