predicted
     RDKit          3D

 36 41  0  0  0  0  0  0  0  0999 V2000
   13.9000   -2.2660   21.6350 Cl  0  0  0  0  0  0  0  0  0  0  0  0
    4.8340    4.8740   22.8880 N   0  0  0  0  0  0  0  0  0  0  0  0
    9.1430    1.2790   21.3640 O   0  0  0  0  0  0  0  0  0  0  0  0
    6.8710    2.2130   24.9430 O   0  0  0  0  0  0  0  0  0  0  0  0
    8.6080    3.6200   25.7900 O   0  0  0  0  0  0  0  0  0  0  0  0
    5.9220    4.7740   23.1500 C   0  0  0  0  0  0  0  0  0  0  0  0
    6.7410    0.1350   17.8370 N   0  0  0  0  0  0  0  0  0  0  0  0
    8.7670    0.2100   21.8190 C   0  0  0  0  0  0  0  0  0  0  0  0
    7.4260   -0.2940   18.8760 C   0  0  0  0  0  3  0  0  0  0  0  0
   13.5420   -0.0660   23.0810 C   0  0  0  0  0  3  0  0  0  0  0  0
   12.7960    0.8580   23.7390 C   0  0  0  0  0  3  0  0  0  0  0  0
   11.5660   -1.2240   22.3980 C   0  0  0  0  0  3  0  0  0  0  0  0
    3.4460    1.9410   20.8100 C   0  0  0  0  0  3  0  0  0  0  0  0
    4.1430    1.4700   21.8900 C   0  0  0  0  0  3  0  0  0  0  0  0
   12.9280   -1.1030   22.4090 C   0  0  0  0  0  0  0  0  0  0  0  0
   11.4190    0.7480   23.7400 C   0  0  0  0  0  0  0  0  0  0  0  0
   10.7880   -0.3340   23.1140 C   0  0  0  0  0  0  0  0  0  0  0  0
    5.5930    0.7700   18.0270 C   0  0  0  0  0  3  0  0  0  0  0  0
    3.9210    1.7210   19.5320 C   0  0  0  0  0  3  0  0  0  0  0  0
    5.2890    0.7990   21.7100 C   0  0  0  0  0  3  0  0  0  0  0  0
    7.0120   -0.1260   20.2000 C   0  0  0  0  0  0  0  0  0  0  0  0
    5.0920    1.0310   19.3150 C   0  0  0  0  0  0  0  0  0  0  0  0
    5.8040    0.5680   20.4370 C   0  0  0  0  0  0  0  0  0  0  0  0
    7.7850   -0.5400   21.2780 N   0  0  0  0  0  0  0  0  0  0  0  0
    9.1920    1.6630   24.2960 N   0  0  0  0  0  0  0  0  0  0  0  0
   10.6470    1.7690   24.5200 C   0  0  0  0  0  2  0  0  0  0  0  0
    7.8930    6.2360   23.7380 C   0  0  0  0  0  2  0  0  0  0  0  0
    7.8240    6.0580   22.2280 C   0  0  0  0  0  2  0  0  0  0  0  0
    7.3730    5.0640   23.1400 C   0  0  2  0  0  0  0  0  0  0  0  0
    8.7760   -2.6520   24.1600 C   0  0  0  0  0  1  0  0  0  0  0  0
    7.6860   -1.8120   21.9690 C   0  0  0  0  0  2  0  0  0  0  0  0
    8.7170    0.3280   24.2760 C   0  0  0  0  0  2  0  0  0  0  0  0
    8.1250    3.7980   23.1850 C   0  0  0  0  0  2  0  0  0  0  0  0
    8.7680   -1.8410   22.9510 C   0  0  0  0  0  3  0  0  0  0  0  0
    9.3080   -0.4240   23.0880 C   0  0  1  0  0  0  0  0  0  0  0  0
    8.1460    2.8400   24.6860 S   0  0  1  0  0  6  0  0  0  0  0  0
  2  6  3  0
 29  6  1  6
 29 27  1  0
 29 28  1  0
 29 33  1  0
 27 28  1  0
 36 33  1  1
 36  4  2  0
 36  5  2  0
 36 25  1  0
 25 32  1  0
 25 26  1  0
 35 32  1  1
 26 16  1  0
 16 17  2  0
 16 11  1  0
 17 12  1  0
 17 35  1  0
 12 15  2  0
 15  1  1  0
 15 10  1  0
 10 11  2  0
 35 34  1  0
 35  8  1  0
 34 30  1  0
 34 31  1  0
  8  3  2  0
  8 24  1  0
 24 31  1  0
 24 21  1  0
 21 23  1  0
 21  9  2  0
 23 20  2  0
 23 22  1  0
 20 14  1  0
 14 13  2  0
 13 19  1  0
 19 22  2  0
 22 18  1  0
 18  7  2  0
  7  9  1  0
M  END
