predicted
     RDKit          3D

 26 29  0  0  0  0  0  0  0  0999 V2000
   14.1180   -1.1150   21.2480 Cl  0  0  0  0  0  0  0  0  0  0  0  0
    9.3690    1.6340   20.9580 O   0  0  0  0  0  0  0  0  0  0  0  0
    6.9920    1.0060   17.5190 N   0  0  0  0  0  0  0  0  0  0  0  0
   10.6030    2.0620   24.6320 O   0  0  0  0  0  0  0  0  0  0  0  0
    8.8300    0.7080   21.5260 C   0  0  0  0  0  0  0  0  0  0  0  0
    7.5760    0.5400   18.6240 C   0  0  0  0  0  3  0  0  0  0  0  0
   13.5680    0.8230   23.0430 C   0  0  0  0  0  3  0  0  0  0  0  0
   12.7300    1.5760   23.8270 C   0  0  0  0  0  3  0  0  0  0  0  0
   11.7210   -0.3820   22.1060 C   0  0  0  0  0  3  0  0  0  0  0  0
    3.5070    2.7470   20.1740 C   0  0  0  0  0  3  0  0  0  0  0  0
    4.0930    2.2650   21.3100 C   0  0  0  0  0  3  0  0  0  0  0  0
   13.0590   -0.1680   22.1960 C   0  0  0  0  0  0  0  0  0  0  0  0
   11.3900    1.3620   23.7580 C   0  0  0  0  0  0  0  0  0  0  0  0
   10.8370    0.3570   22.9090 C   0  0  0  0  0  0  0  0  0  0  0  0
    5.8640    1.6560   17.5950 C   0  0  0  0  0  3  0  0  0  0  0  0
    4.0790    2.5660   18.9420 C   0  0  0  0  0  3  0  0  0  0  0  0
    5.2550    1.5910   21.2610 C   0  0  0  0  0  3  0  0  0  0  0  0
    7.0500    0.7080   19.8950 C   0  0  0  0  0  0  0  0  0  0  0  0
    5.2420    1.8790   18.8410 C   0  0  0  0  0  0  0  0  0  0  0  0
    5.8500    1.3920   20.0080 C   0  0  0  0  0  0  0  0  0  0  0  0
    7.6920    0.2110   21.0580 N   0  0  0  0  0  2  0  0  0  0  0  0
    9.2190    2.1660   24.3350 C   0  0  0  0  0  2  0  0  0  0  0  0
    8.6200    0.8970   23.9750 C   0  0  0  0  0  2  0  0  0  0  0  0
    9.0920   -1.2730   23.0450 C   0  0  0  0  0  2  0  0  0  0  0  0
    9.3670    0.1700   22.8430 C   0  0  1  0  0  0  0  0  0  0  0  0
    9.0330   -2.3520   23.2900 N   0  0  0  0  0  1  0  0  0  0  0  0
  2  5  2  0
  5 25  1  0
  5 21  1  0
 25 14  1  0
 25 23  1  0
 25 24  1  1
 14  9  2  0
 14 13  1  0
  9 12  1  0
 12  1  1  0
 12  7  2  0
  7  8  1  0
  8 13  2  0
 13  4  1  0
  4 22  1  0
 22 23  1  0
 24 26  1  0
 21 18  1  0
 18 20  1  0
 18  6  2  0
 20 17  2  0
 20 19  1  0
 17 11  1  0
 11 10  2  0
 10 16  1  0
 16 19  2  0
 19 15  1  0
 15  3  2  0
  3  6  1  0
M  CHG  1  26   1
M  END
