predicted
     RDKit          3D

 23 25  0  0  0  0  0  0  0  0999 V2000
   12.6160    3.8480   23.1610 Cl  0  0  0  0  0  0  0  0  0  0  0  0
    8.9160    1.3720   21.0270 O   0  0  0  0  0  0  0  0  0  0  0  0
    6.5800    0.3280   17.7060 N   0  0  0  0  0  0  0  0  0  0  0  0
    8.4840    0.4890   21.6610 C   0  0  0  0  0  0  0  0  0  0  0  0
    7.2320   -0.0670   18.7970 C   0  0  0  0  0  3  0  0  0  0  0  0
   10.8610    1.8150   23.0870 C   0  0  0  0  0  3  0  0  0  0  0  0
   13.1650    1.1890   23.1410 C   0  0  0  0  0  3  0  0  0  0  0  0
   11.4600   -0.5300   23.0670 C   0  0  0  0  0  3  0  0  0  0  0  0
    3.1450    2.0800   20.4560 C   0  0  0  0  0  3  0  0  0  0  0  0
    3.7880    1.6720   21.5750 C   0  0  0  0  0  3  0  0  0  0  0  0
   12.1940    2.1770   23.1350 C   0  0  0  0  0  0  0  0  0  0  0  0
   10.5260    0.4700   23.0740 C   0  0  0  0  0  0  0  0  0  0  0  0
   12.7780   -0.1480   23.1190 C   0  0  0  0  0  0  0  0  0  0  0  0
    5.4340    0.9340   17.7940 C   0  0  0  0  0  3  0  0  0  0  0  0
    3.6640    1.8660   19.2060 C   0  0  0  0  0  3  0  0  0  0  0  0
    4.9600    1.0440   21.4870 C   0  0  0  0  0  3  0  0  0  0  0  0
    6.7470    0.1300   20.0470 C   0  0  0  0  0  0  0  0  0  0  0  0
    4.8650    1.2120   19.0650 C   0  0  0  0  0  0  0  0  0  0  0  0
    5.5240    0.7950   20.2280 C   0  0  0  0  0  0  0  0  0  0  0  0
    7.4480   -0.2800   21.2220 N   0  0  0  0  0  2  0  0  0  0  0  0
    9.0570    0.0770   23.0160 C   0  0  0  0  0  2  0  0  0  0  0  0
   13.7230   -2.0010   21.8360 C   0  0  0  0  0  1  0  0  0  0  0  0
   13.7720   -1.2490   23.1180 C   0  0  0  0  0  2  0  0  0  0  0  0
  2  4  2  0
  4 21  1  0
  4 20  1  0
 21 12  1  0
 12  6  2  0
 12  8  1  0
  6 11  1  0
 11  1  1  0
 11  7  2  0
  7 13  1  0
  8 13  2  0
 13 23  1  0
 23 22  1  0
 20 17  1  0
 17 19  1  0
 17  5  2  0
 19 16  2  0
 19 18  1  0
 16 10  1  0
 10  9  2  0
  9 15  1  0
 15 18  2  0
 18 14  1  0
 14  3  2  0
  3  5  1  0
M  END
