predicted
     RDKit          3D

 21 23  0  0  0  0  0  0  0  0999 V2000
   13.8230   -1.5420   21.4220 Cl  0  0  0  0  0  0  0  0  0  0  0  0
    7.2810   -1.1490   24.1150 O   0  0  0  0  0  0  0  0  0  0  0  0
    4.3200    0.8950   22.3810 N   0  0  0  0  0  0  0  0  0  0  0  0
    6.5920    0.3540   17.9910 N   0  0  0  0  0  0  0  0  0  0  0  0
    7.8030   -1.4330   23.0990 C   0  0  0  0  0  0  0  0  0  0  0  0
    5.5420    1.1030   17.7740 C   0  0  0  0  0  3  0  0  0  0  0  0
    5.3950    0.1480   22.5990 C   0  0  0  0  0  3  0  0  0  0  0  0
   11.5280    0.5220   23.9000 C   0  0  0  0  0  3  0  0  0  0  0  0
   12.5900    0.1460   23.1400 C   0  0  0  0  0  3  0  0  0  0  0  0
   10.3890   -0.2380   23.9100 C   0  0  0  0  0  3  0  0  0  0  0  0
   11.3750   -1.7930   22.3860 C   0  0  0  0  0  3  0  0  0  0  0  0
   12.5110   -1.0250   22.3740 C   0  0  0  0  0  0  0  0  0  0  0  0
   10.3290   -1.4160   23.1470 C   0  0  0  0  0  0  0  0  0  0  0  0
    4.0580    1.3340   21.1580 C   0  0  0  0  0  3  0  0  0  0  0  0
    6.8410   -0.0940   19.2000 C   0  0  0  0  0  3  0  0  0  0  0  0
    4.6530    1.4880   18.7810 C   0  0  0  0  0  3  0  0  0  0  0  0
    6.2620   -0.2220   21.6230 C   0  0  0  0  0  0  0  0  0  0  0  0
    4.8970    1.0340   20.0690 C   0  0  0  0  0  0  0  0  0  0  0  0
    6.0180    0.2210   20.3060 C   0  0  0  0  0  0  0  0  0  0  0  0
    7.3760   -1.0330   21.8620 N   0  0  0  0  0  2  0  0  0  0  0  0
    9.0590   -2.2710   23.1730 C   0  0  0  0  0  2  0  0  0  0  0  0
  2  5  2  0
  5 21  1  0
  5 20  1  0
 21 13  1  0
 13 10  2  0
 13 11  1  0
 10  8  1  0
  8  9  2  0
  9 12  1  0
 11 12  2  0
 12  1  1  0
 20 17  1  0
 17 19  1  0
 17  7  2  0
 19 15  2  0
 19 18  1  0
 15  4  1  0
  4  6  2  0
  6 16  1  0
 16 18  2  0
 18 14  1  0
 14  3  2  0
  3  7  1  0
M  END
