predicted
     RDKit          3D

 12 12  0  0  0  0  0  0  0  0999 V2000
    8.1590   -2.8890   21.4720 N   0  0  0  0  0  0  0  0  0  0  0  0
    6.2730   -1.6910   20.7020 N   0  0  0  0  0  0  0  0  0  0  0  0
    9.2150   -2.3120   23.4030 O   0  0  0  0  0  0  0  0  0  0  0  0
    5.4240    0.1110   21.8780 O   0  0  0  0  0  0  0  0  0  0  0  0
    7.1740   -2.6870   20.6090 C   0  0  0  0  0  0  0  0  0  0  0  0
    8.2280   -2.0610   22.5160 C   0  0  0  0  0  0  0  0  0  0  0  0
    6.3580   -0.8810   21.7610 C   0  0  0  0  0  0  0  0  0  0  0  0
    7.3730   -1.0050   22.7100 C   0  0  0  0  0  3  0  0  0  0  0  0
   10.1920   -1.3420   23.5300 C   0  0  0  0  0  1  0  0  0  0  0  0
    4.7300    0.4860   20.7450 C   0  0  0  0  0  1  0  0  0  0  0  0
    7.1010   -3.6220   19.4370 C   0  0  0  0  0  2  0  0  0  0  0  0
    6.1960   -4.6760   19.5360 N   0  0  0  0  0  1  0  0  0  0  0  0
 12 11  1  0
 11  5  1  0
  5  1  2  0
  5  2  1  0
  1  6  1  0
  6  3  1  0
  6  8  2  0
  3  9  1  0
  8  7  1  0
  2  7  2  0
  7  4  1  0
  4 10  1  0
M  CHG  1  12   1
M  END
