predicted
     RDKit          3D

 27 31  0  0  0  0  0  0  0  0999 V2000
   13.9560   -2.0160   21.4530 Cl  0  0  0  0  0  0  0  0  0  0  0  0
    9.2210    1.3030   21.2660 O   0  0  0  0  0  0  0  0  0  0  0  0
    6.7260    0.3390   17.7990 N   0  0  0  0  0  0  0  0  0  0  0  0
    8.7790    0.2870   21.8240 C   0  0  0  0  0  0  0  0  0  0  0  0
    7.3460   -0.1490   18.8600 C   0  0  0  0  0  3  0  0  0  0  0  0
   13.6420    0.1730   22.9690 C   0  0  0  0  0  3  0  0  0  0  0  0
   12.9310    1.0680   23.6930 C   0  0  0  0  0  3  0  0  0  0  0  0
   11.6220   -1.0010   22.3290 C   0  0  0  0  0  3  0  0  0  0  0  0
    3.4670    2.4370   20.6410 C   0  0  0  0  0  3  0  0  0  0  0  0
    4.1060    1.9890   21.7670 C   0  0  0  0  0  3  0  0  0  0  0  0
   12.9920   -0.8720   22.2990 C   0  0  0  0  0  0  0  0  0  0  0  0
   11.5620    0.9670   23.7510 C   0  0  0  0  0  0  0  0  0  0  0  0
   10.8710   -0.0740   23.0870 C   0  0  0  0  0  0  0  0  0  0  0  0
    5.6060    1.0700   17.9450 C   0  0  0  0  0  3  0  0  0  0  0  0
    3.9420    2.1420   19.3810 C   0  0  0  0  0  3  0  0  0  0  0  0
    5.2520    1.2440   21.6420 C   0  0  0  0  0  3  0  0  0  0  0  0
    6.9770    0.2090   20.1660 C   0  0  0  0  0  0  0  0  0  0  0  0
    5.0970    1.3970   19.2230 C   0  0  0  0  0  0  0  0  0  0  0  0
    5.7650    0.9300   20.3660 C   0  0  0  0  0  0  0  0  0  0  0  0
    7.6690   -0.3230   21.2930 N   0  0  0  0  0  0  0  0  0  0  0  0
   10.8940    1.9000   24.5510 N   0  0  0  0  0  2  0  0  0  0  0  0
    7.2060   -1.6360   21.7740 C   0  0  0  0  0  2  0  0  0  0  0  0
    9.5030    2.0070   24.4490 C   0  0  0  0  0  2  0  0  0  0  0  0
    7.5540   -1.9210   23.2390 C   0  0  0  0  0  2  0  0  0  0  0  0
    8.7820    0.7310   24.2560 C   0  0  0  0  0  2  0  0  0  0  0  0
    9.0060   -1.5850   23.5290 C   0  0  0  0  0  2  0  0  0  0  0  0
    9.3840   -0.1460   23.1600 C   0  0  1  0  0  0  0  0  0  0  0  0
  2  4  2  0
  4 27  1  0
  4 20  1  0
 27 25  1  6
 27 13  1  0
 27 26  1  0
 25 23  1  0
 23 21  1  0
 21 12  1  0
 13 12  2  0
 13  8  1  0
 12  7  1  0
  7  6  2  0
  6 11  1  0
  8 11  2  0
 11  1  1  0
 20 22  1  0
 20 17  1  0
 22 24  1  0
 24 26  1  0
 17 19  1  0
 17  5  2  0
 19 16  2  0
 19 18  1  0
 16 10  1  0
 10  9  2  0
  9 15  1  0
 15 18  2  0
 18 14  1  0
 14  3  2  0
  3  5  1  0
M  END
