predicted
     RDKit          3D

 31 35  0  0  0  0  0  0  0  0999 V2000
  -13.7280   -2.0950  -21.5010 Cl  0  0  0  0  0  0  0  0  0  0  0  0
   -8.9580   -0.3100  -21.3810 O   0  0  0  0  0  0  0  0  0  0  0  0
   -5.9030   -2.3790  -25.7360 O   0  0  0  0  0  0  0  0  0  0  0  0
   -7.2050   -3.8860  -26.9770 O   0  0  0  0  0  0  0  0  0  0  0  0
   -6.7100   -0.2770  -17.4280 N   0  0  0  0  0  0  0  0  0  0  0  0
   -8.3610   -1.3450  -21.5300 C   0  0  0  0  0  0  0  0  0  0  0  0
   -7.2080   -0.9690  -18.4410 C   0  0  0  0  0  3  0  0  0  0  0  0
  -12.7330   -2.9420  -23.8240 C   0  0  0  0  0  3  0  0  0  0  0  0
  -11.6950   -3.2430  -24.6720 C   0  0  0  0  0  3  0  0  0  0  0  0
  -11.1770   -2.2710  -22.1580 C   0  0  0  0  0  3  0  0  0  0  0  0
   -3.5710    1.7180  -20.3930 C   0  0  0  0  0  3  0  0  0  0  0  0
   -4.1040    1.0110  -21.4610 C   0  0  0  0  0  3  0  0  0  0  0  0
  -12.4500   -2.4540  -22.5630 C   0  0  0  0  0  0  0  0  0  0  0  0
  -10.3750   -3.0410  -24.2580 C   0  0  0  0  0  0  0  0  0  0  0  0
  -10.1060   -2.5170  -22.9960 C   0  0  0  0  0  0  0  0  0  0  0  0
   -5.6810    0.5260  -17.6080 C   0  0  0  0  0  3  0  0  0  0  0  0
   -4.0800    1.5840  -19.1260 C   0  0  0  0  0  3  0  0  0  0  0  0
   -5.1440    0.1490  -21.2890 C   0  0  0  0  0  3  0  0  0  0  0  0
   -6.7610   -0.8770  -19.7420 C   0  0  0  0  0  0  0  0  0  0  0  0
   -5.1330    0.7080  -18.8940 C   0  0  0  0  0  0  0  0  0  0  0  0
   -5.6740   -0.0170  -19.9820 C   0  0  0  0  0  0  0  0  0  0  0  0
   -7.2940   -1.7020  -20.7850 N   0  0  0  0  0  2  0  0  0  0  0  0
   -5.9710   -4.8060  -25.0660 N   0  0  0  0  0  0  0  0  0  0  0  0
   -8.0090   -3.1220  -24.7190 N   0  0  0  0  0  0  0  0  0  0  0  0
   -9.3190   -3.3750  -25.2140 C   0  0  0  0  0  2  0  0  0  0  0  0
   -6.6050   -6.0380  -24.7250 C   0  0  0  0  0  2  0  0  0  0  0  0
   -5.0020   -4.7320  -24.0210 C   0  0  0  0  0  2  0  0  0  0  0  0
   -5.3660   -6.3440  -23.6770 C   0  0  0  0  0  2  0  0  0  0  0  0
   -7.8200   -2.2010  -23.7340 C   0  0  0  0  0  2  0  0  0  0  0  0
   -8.7170   -2.3710  -22.5440 C   0  0  0  0  0  3  0  0  0  0  0  0
   -6.7590   -3.5110  -25.6900 S   0  0  1  0  0  6  0  0  0  0  0  0
  3 31  2  0
 31  4  2  0
 31 23  1  6
 31 24  1  0
 23 26  1  0
 23 27  1  0
 26 28  1  0
 28 27  1  0
 24 25  1  0
 24 29  1  0
 25 14  1  0
 29 30  1  0
 30 15  1  0
 30  6  1  0
 15 14  2  0
 15 10  1  0
 14  9  1  0
  9  8  2  0
  8 13  1  0
 10 13  2  0
 13  1  1  0
  6  2  2  0
  6 22  1  0
 22 19  1  0
 19 21  1  0
 19  7  2  0
 21 18  2  0
 21 20  1  0
 18 12  1  0
 12 11  2  0
 11 17  1  0
 17 20  2  0
 20 16  1  0
 16  5  2  0
  5  7  1  0
M  END
