predicted
     RDKit          3D

 19 21  0  0  0  0  0  0  0  0999 V2000
    9.0060    1.4120   20.9720 O   0  0  0  0  0  0  0  0  0  0  0  0
    6.7020    0.5710   17.7230 N   0  0  0  0  0  0  0  0  0  0  0  0
    7.6060   -0.0880   18.4040 N   0  0  0  0  0  0  0  0  0  0  0  0
    8.9910    0.2550   21.3540 C   0  0  0  0  0  0  0  0  0  0  0  0
    3.9170    2.1350   19.5500 C   0  0  0  0  0  3  0  0  0  0  0  0
    4.3080    1.7530   20.7910 C   0  0  0  0  0  3  0  0  0  0  0  0
    4.6440    1.7800   18.4260 C   0  0  0  0  0  3  0  0  0  0  0  0
    5.4640    1.0100   20.9680 C   0  0  0  0  0  3  0  0  0  0  0  0
    5.7880    1.0340   18.5590 C   0  0  0  0  0  0  0  0  0  0  0  0
    6.1760    0.6470   19.8510 C   0  0  0  0  0  0  0  0  0  0  0  0
    9.7390   -0.1130   22.4120 N   0  0  0  0  0  0  0  0  0  0  0  0
    7.2990   -0.0690   19.6670 N   0  0  0  0  0  0  0  0  0  0  0  0
    8.1110   -0.7100   20.6900 C   0  0  0  0  0  2  0  0  0  0  0  0
   13.7180   -1.1440   22.9980 C   0  0  0  0  0  1  0  0  0  0  0  0
    9.8910   -1.4690   22.8580 C   0  0  0  0  0  2  0  0  0  0  0  0
   10.5010    0.8710   23.1560 C   0  0  0  0  0  2  0  0  0  0  0  0
   11.3480   -1.8320   22.6030 C   0  0  0  0  0  2  0  0  0  0  0  0
   11.9510    0.5680   22.9200 C   0  0  0  0  0  2  0  0  0  0  0  0
   12.2630   -0.8440   23.3280 C   0  0  0  0  0  3  0  0  0  0  0  0
  1  4  2  0
  4 11  1  0
  4 13  1  0
 11 16  1  0
 11 15  1  0
 16 18  1  0
 18 19  1  0
 15 17  1  0
 17 19  1  0
 19 14  1  0
 13 12  1  0
 12 10  1  0
 12  3  1  0
 10  9  2  0
 10  8  1  0
  9  2  1  0
  9  7  1  0
  2  3  2  0
  8  6  2  0
  6  5  1  0
  5  7  2  0
M  END
