predicted
     RDKit          3D

 27 31  0  0  0  0  0  0  0  0999 V2000
   13.4990   -1.3760   21.4970 Cl  0  0  0  0  0  0  0  0  0  0  0  0
    6.8060   -2.3010   21.4000 O   0  0  0  0  0  0  0  0  0  0  0  0
    8.4670    1.8480   21.3100 O   0  0  0  0  0  0  0  0  0  0  0  0
    6.5430    0.7200   17.6320 N   0  0  0  0  0  0  0  0  0  0  0  0
    9.9680    2.0740   24.6060 O   0  0  0  0  0  0  0  0  0  0  0  0
    7.3710   -1.3440   21.7730 C   0  0  0  0  0  0  0  0  0  0  0  0
    8.2130    0.7290   21.7350 C   0  0  0  0  0  0  0  0  0  0  0  0
    7.1800    0.2400   18.6750 C   0  0  0  0  0  3  0  0  0  0  0  0
   12.9440    0.6940   23.1450 C   0  0  0  0  0  3  0  0  0  0  0  0
   12.1110    1.5100   23.8500 C   0  0  0  0  0  3  0  0  0  0  0  0
   11.0620   -0.5770   22.2970 C   0  0  0  0  0  3  0  0  0  0  0  0
    3.0020    2.2540   20.4680 C   0  0  0  0  0  3  0  0  0  0  0  0
    3.6090    1.7080   21.5730 C   0  0  0  0  0  3  0  0  0  0  0  0
   12.4290   -0.3580   22.3690 C   0  0  0  0  0  0  0  0  0  0  0  0
   10.7570    1.3060   23.7850 C   0  0  0  0  0  0  0  0  0  0  0  0
   10.2030    0.2240   23.0280 C   0  0  0  0  0  0  0  0  0  0  0  0
    5.3480    1.3240   17.7790 C   0  0  0  0  0  3  0  0  0  0  0  0
    3.5700    2.1570   19.2200 C   0  0  0  0  0  3  0  0  0  0  0  0
    4.7860    1.0520   21.4380 C   0  0  0  0  0  3  0  0  0  0  0  0
    6.6010    0.2320   19.9470 C   0  0  0  0  0  0  0  0  0  0  0  0
    4.7540    1.4770   19.0580 C   0  0  0  0  0  0  0  0  0  0  0  0
    5.3820    0.9440   20.1660 C   0  0  0  0  0  0  0  0  0  0  0  0
    7.3520   -0.1220   21.1050 N   0  0  0  0  0  0  0  0  0  0  0  0
    8.2070   -1.2600   22.8460 N   0  0  0  0  0  2  0  0  0  0  0  0
    8.5600    2.0490   24.4660 C   0  0  0  0  0  2  0  0  0  0  0  0
    8.0510    0.7140   24.2020 C   0  0  0  0  0  2  0  0  0  0  0  0
    8.7220    0.0710   22.9580 C   0  0  2  0  0  0  0  0  0  0  0  0
  3  7  2  0
  7 27  1  0
  7 23  1  0
 27 26  1  1
 27 16  1  0
 27 24  1  0
 26 25  1  0
 25  5  1  0
  5 15  1  0
 16 15  2  0
 16 11  1  0
 15 10  1  0
 10  9  2  0
  9 14  1  0
 11 14  2  0
 14  1  1  0
 23  6  1  0
 23 20  1  0
  6  2  2  0
  6 24  1  0
 20 22  1  0
 20  8  2  0
 22 19  2  0
 22 21  1  0
 19 13  1  0
 13 12  2  0
 12 18  1  0
 18 21  2  0
 21 17  1  0
 17  4  2  0
  4  8  1  0
M  END
