predicted
     RDKit          3D

 27 30  0  0  0  0  0  0  0  0999 V2000
   13.8350   -1.9440   21.5850 Cl  0  0  0  0  0  0  0  0  0  0  0  0
    9.1440    0.9940   21.1840 O   0  0  0  0  0  0  0  0  0  0  0  0
   10.3410    1.4260   26.1910 O   0  0  0  0  0  0  0  0  0  0  0  0
   10.5010    3.2130   24.4490 O   0  0  0  0  0  0  0  0  0  0  0  0
    6.6840    0.3210   17.7620 N   0  0  0  0  0  0  0  0  0  0  0  0
    8.6010    0.0430   21.7190 C   0  0  0  0  0  0  0  0  0  0  0  0
    7.2790   -0.1510   18.8400 C   0  0  0  0  0  3  0  0  0  0  0  0
   13.3900    0.1380   23.1320 C   0  0  0  0  0  3  0  0  0  0  0  0
   11.4800   -1.1120   22.3360 C   0  0  0  0  0  3  0  0  0  0  0  0
   12.5790    0.9680   23.8450 C   0  0  0  0  0  3  0  0  0  0  0  0
    3.2670    2.1530   20.4830 C   0  0  0  0  0  3  0  0  0  0  0  0
    3.8820    1.6800   21.6150 C   0  0  0  0  0  3  0  0  0  0  0  0
   12.8430   -0.9080   22.3930 C   0  0  0  0  0  0  0  0  0  0  0  0
   10.6260   -0.3130   23.0890 C   0  0  0  0  0  0  0  0  0  0  0  0
   11.2080    0.7570   23.8160 C   0  0  0  0  0  0  0  0  0  0  0  0
    5.5540    0.9880   17.8500 C   0  0  0  0  0  3  0  0  0  0  0  0
    3.8060    1.9390   19.2300 C   0  0  0  0  0  3  0  0  0  0  0  0
    5.0330    0.9860   21.5320 C   0  0  0  0  0  3  0  0  0  0  0  0
    6.7870    0.0380   20.1310 C   0  0  0  0  0  0  0  0  0  0  0  0
    4.9720    1.2320   19.1110 C   0  0  0  0  0  0  0  0  0  0  0  0
    5.6030    0.7480   20.2690 C   0  0  0  0  0  0  0  0  0  0  0  0
    7.4250   -0.4540   21.2740 N   0  0  0  0  0  2  0  0  0  0  0  0
    8.7110    1.5410   24.3060 N   0  0  0  0  0  2  0  0  0  0  0  0
    8.9160   -2.0300   23.1110 C   0  0  0  0  0  1  0  0  0  0  0  0
    8.4060    0.1130   24.2040 C   0  0  0  0  0  2  0  0  0  0  0  0
    9.1640   -0.5370   23.0150 C   0  0  2  0  0  0  0  0  0  0  0  0
   10.2390    1.8300   24.7700 S   0  0  1  0  0  6  0  0  0  0  0  0
  2  6  2  0
  6 26  1  0
  6 22  1  0
 26 14  1  0
 26 25  1  0
 26 24  1  1
 14  9  2  0
 14 15  1  0
  9 13  1  0
 13  1  1  0
 13  8  2  0
  8 10  1  0
 10 15  2  0
 15 27  1  0
 27  3  2  0
 27  4  2  0
 27 23  1  1
 23 25  1  0
 22 19  1  0
 19 21  1  0
 19  7  2  0
 21 18  2  0
 21 20  1  0
 18 12  1  0
 12 11  2  0
 11 17  1  0
 17 20  2  0
 20 16  1  0
 16  5  2  0
  5  7  1  0
M  END
