predicted
     RDKit          3D

 35 37  0  0  0  0  0  0  0  0999 V2000
   12.1090    4.0890   24.3890 O   0  0  0  0  0  0  0  0  0  0  0  0
    6.6380    1.3290   17.1020 O   0  0  0  0  0  0  0  0  0  0  0  0
    9.4670    1.9810   21.1750 O   0  0  0  0  0  0  0  0  0  0  0  0
    8.0130   -0.8370   22.5970 O   0  0  0  0  0  0  0  0  0  0  0  0
   11.7760    4.5510   23.2870 C   0  0  0  0  0  0  0  0  0  0  0  0
    6.1040    1.2490   18.1810 C   0  0  0  0  0  0  0  0  0  0  0  0
    9.8180    1.9350   22.3300 C   0  0  0  0  0  0  0  0  0  0  0  0
    8.9370   -0.9510   21.7930 C   0  0  0  0  0  0  0  0  0  0  0  0
    5.0320    1.9890   18.5640 N   0  0  0  0  0  2  0  0  0  0  0  0
    8.7670   -1.4380   20.5380 N   0  0  0  0  0  2  0  0  0  0  0  0
   10.6200    4.1780   22.6700 N   0  0  0  0  0  2  0  0  0  0  0  0
   10.2360    0.7760   22.8820 N   0  0  0  0  0  0  0  0  0  0  0  0
   12.6430    5.5590   22.6250 C   0  0  2  0  0  0  0  0  0  0  0  0
   13.2680   -2.2660   24.1090 C   0  0  0  0  0  1  0  0  0  0  0  0
   13.2400   -0.2220   22.6190 C   0  0  0  0  0  1  0  0  0  0  0  0
    8.2110    4.2990   24.8190 C   0  0  0  0  0  1  0  0  0  0  0  0
    7.9160    4.7220   22.3540 C   0  0  0  0  0  1  0  0  0  0  0  0
    7.3210    2.5160   23.3420 C   0  0  0  0  0  1  0  0  0  0  0  0
    4.7420    1.7180   19.9200 C   0  0  0  0  0  2  0  0  0  0  0  0
    5.5170    0.5940   20.2880 C   0  0  0  0  0  2  0  0  0  0  0  0
    6.9960   -0.9230   18.9060 C   0  0  0  0  0  2  0  0  0  0  0  0
   10.7150    0.5860   24.2360 C   0  0  0  0  0  2  0  0  0  0  0  0
   12.4980   -1.1230   23.4540 C   0  0  2  0  0  0  0  0  0  0  0  0
    8.2980    3.6590   23.4190 C   0  0  2  0  0  0  0  0  0  0  0  0
    7.4190   -3.2560   19.5830 C   0  0  0  0  0  2  0  0  0  0  0  0
    6.5490    0.4020   19.2940 C   0  0  0  0  0  3  0  0  0  0  0  0
    7.4050   -1.8570   20.0990 C   0  0  0  0  0  3  0  0  0  0  0  0
   11.3520   -0.7590   24.2050 C   0  0  0  0  0  3  0  0  0  0  0  0
   11.0710   -1.3930   23.0650 C   0  0  0  0  0  3  0  0  0  0  0  0
    9.7740    3.1640   23.2480 C   0  0  0  0  0  3  0  0  0  0  0  0
   10.3250   -0.4410   22.0970 C   0  0  0  0  0  3  0  0  0  0  0  0
    6.7150   -4.2110   19.6700 N   0  0  0  0  0  1  0  0  0  0  0  0
   13.5920    5.9390   23.4230 F   0  0  0  0  0  0  0  0  0  0  0  0
   11.9100    6.6260   22.2710 F   0  0  0  0  0  0  0  0  0  0  0  0
   13.2140    4.9830   21.5290 F   0  0  0  0  0  0  0  0  0  0  0  0
  6 26  1  0
  6  9  1  0
  6  2  2  0
 25 27  1  0
 25 32  1  0
  8 31  1  0
  8 10  1  0
  8  4  2  0
  7 30  1  0
  7 12  1  0
  7  3  2  0
  5 13  1  0
  5 11  1  0
  5  1  2  0
 20 19  1  0
 20 26  1  0
 19  9  1  0
 22 28  1  0
 22 12  1  0
 26 21  1  0
 31 29  1  0
 31 12  1  0
 28 29  1  0
 28 23  1  0
 29 23  1  0
 23 14  1  1
 23 15  1  0
 24 16  1  1
 17 24  1  0
 18 24  1  0
 21 27  1  0
 27 10  1  0
 30 24  1  0
 30 11  1  0
 13 33  1  1
 13 34  1  0
 13 35  1  0
M  CHG  1  32   1
M  END
