predicted
     RDKit          3D

 21 23  0  0  0  0  0  0  0  0999 V2000
   13.9730   -1.8890   21.6690 Cl  0  0  0  0  0  0  0  0  0  0  0  0
    9.0550    0.8970   21.0630 O   0  0  0  0  0  0  0  0  0  0  0  0
    3.2780    1.9440   20.4930 N   0  0  0  0  0  0  0  0  0  0  0  0
    6.6970    0.3420   17.6630 N   0  0  0  0  0  0  0  0  0  0  0  0
    8.5690   -0.0610   21.5710 C   0  0  0  0  0  0  0  0  0  0  0  0
    3.8440    1.4280   21.5540 C   0  0  0  0  0  3  0  0  0  0  0  0
    7.3010   -0.1840   18.7240 C   0  0  0  0  0  3  0  0  0  0  0  0
   12.2680    1.0540   23.7550 C   0  0  0  0  0  3  0  0  0  0  0  0
   13.2240    0.2520   23.1370 C   0  0  0  0  0  3  0  0  0  0  0  0
   10.9380    0.7260   23.6640 C   0  0  0  0  0  3  0  0  0  0  0  0
   11.5030   -1.2100   22.3160 C   0  0  0  0  0  3  0  0  0  0  0  0
   12.8220   -0.8800   22.4260 C   0  0  0  0  0  0  0  0  0  0  0  0
   10.5950   -0.4160   22.9380 C   0  0  0  0  0  0  0  0  0  0  0  0
    3.8170    1.8380   19.2920 C   0  0  0  0  0  3  0  0  0  0  0  0
    5.5690    0.9860   17.8210 C   0  0  0  0  0  3  0  0  0  0  0  0
    5.0150    0.7540   21.4630 C   0  0  0  0  0  3  0  0  0  0  0  0
    6.8130   -0.0900   19.9970 C   0  0  0  0  0  0  0  0  0  0  0  0
    4.9850    1.1610   19.0860 C   0  0  0  0  0  0  0  0  0  0  0  0
    5.6080    0.6010   20.2070 C   0  0  0  0  0  0  0  0  0  0  0  0
    7.4690   -0.6680   21.1000 N   0  0  0  0  0  2  0  0  0  0  0  0
    9.1380   -0.7350   22.8140 C   0  0  0  0  0  2  0  0  0  0  0  0
  2  5  2  0
  5 21  1  0
  5 20  1  0
 21 13  1  0
 13 10  2  0
 13 11  1  0
 10  8  1  0
  8  9  2  0
  9 12  1  0
 11 12  2  0
 12  1  1  0
 20 17  1  0
 17 19  1  0
 17  7  2  0
 19 16  2  0
 19 18  1  0
 16  6  1  0
  6  3  2  0
  3 14  1  0
 14 18  2  0
 18 15  1  0
 15  4  2  0
  4  7  1  0
M  END
