predicted
     RDKit          3D

 24 26  0  0  0  0  0  0  0  0999 V2000
    9.6450    1.4360   20.5790 O   0  0  0  0  0  0  0  0  0  0  0  0
    6.0230   -4.0270   20.2060 O   0  0  0  0  0  0  0  0  0  0  0  0
   13.9160    4.2510   23.9450 O   0  0  0  0  0  0  0  0  0  0  0  0
   11.9830    1.5930   22.6840 N   0  0  0  0  0  0  0  0  0  0  0  0
    9.8310    1.3470   21.7250 C   0  0  0  0  0  0  0  0  0  0  0  0
    7.2460   -3.4450   20.1250 C   0  0  0  0  0  0  0  0  0  0  0  0
    9.2650    5.5100   22.7340 C   0  0  0  0  0  3  0  0  0  0  0  0
   10.3040    6.2350   23.2680 C   0  0  0  0  0  3  0  0  0  0  0  0
    6.4200   -1.0850   20.5660 C   0  0  0  0  0  3  0  0  0  0  0  0
    7.3360   -2.1440   20.8010 C   0  0  0  0  0  0  0  0  0  0  0  0
   10.8510    2.1890   22.3980 C   0  0  0  0  0  0  0  0  0  0  0  0
    9.4180    4.1750   22.4510 C   0  0  0  0  0  3  0  0  0  0  0  0
   11.5130    5.6300   23.5190 C   0  0  0  0  0  3  0  0  0  0  0  0
    6.9600    0.0600   21.1610 C   0  0  0  0  0  0  0  0  0  0  0  0
    8.4310   -1.6330   21.5380 C   0  0  0  0  0  0  0  0  0  0  0  0
   12.9290    3.6190   23.4790 C   0  0  0  0  0  0  0  0  0  0  0  0
   10.6450    3.5300   22.7010 C   0  0  0  0  0  0  0  0  0  0  0  0
   11.6920    4.2720   23.2450 C   0  0  0  0  0  0  0  0  0  0  0  0
    9.1030    0.4890   22.4350 N   0  0  0  0  0  2  0  0  0  0  0  0
    8.1870   -0.3200   21.7690 N   0  0  0  0  0  0  0  0  0  0  0  0
   13.0340    2.2960   23.1910 N   0  0  0  0  0  2  0  0  0  0  0  0
    7.6330   -3.2820   18.6390 C   0  0  0  0  0  1  0  0  0  0  0  0
    6.4300    1.4110   21.1790 C   0  0  0  0  0  1  0  0  0  0  0  0
    9.6200   -2.3030   22.1150 C   0  0  0  0  0  1  0  0  0  0  0  0
  3 16  2  0
 16 21  1  0
 16 18  1  0
 21  4  1  0
  4 11  2  0
 18 17  2  0
 18 13  1  0
 17 12  1  0
 17 11  1  0
 12  7  2  0
  7  8  1  0
  8 13  2  0
 11  5  1  0
  5  1  2  0
  5 19  1  0
 19 20  1  0
 20 14  1  0
 20 15  1  0
 14 23  1  0
 14  9  2  0
 15 24  1  0
 15 10  2  0
 10  9  1  0
 10  6  1  0
  6  2  2  0
  6 22  1  0
M  END
