predicted
     RDKit          3D

 27 29  0  0  0  0  0  0  0  0999 V2000
   14.1240   -1.6420   22.1720 Cl  0  0  0  0  0  0  0  0  0  0  0  0
    9.0690    0.5790   21.0410 O   0  0  0  0  0  0  0  0  0  0  0  0
    8.5120    4.5920   24.9450 O   0  0  0  0  0  0  0  0  0  0  0  0
    9.2810    3.8780   22.7940 O   0  0  0  0  0  0  0  0  0  0  0  0
    6.6330    0.4080   17.6740 N   0  0  0  0  0  0  0  0  0  0  0  0
    8.4930   -0.3670   21.4880 C   0  0  0  0  0  0  0  0  0  0  0  0
    7.2100   -0.2130   18.6950 C   0  0  0  0  0  3  0  0  0  0  0  0
   12.9300    0.1820   23.6840 C   0  0  0  0  0  3  0  0  0  0  0  0
   11.5030   -1.3160   22.4870 C   0  0  0  0  0  3  0  0  0  0  0  0
   11.8440    0.7840   24.2420 C   0  0  0  0  0  3  0  0  0  0  0  0
    3.2840    2.0040   20.6530 C   0  0  0  0  0  3  0  0  0  0  0  0
    3.8710    1.3660   21.6860 C   0  0  0  0  0  3  0  0  0  0  0  0
   12.7460   -0.8590   22.8060 C   0  0  0  0  0  0  0  0  0  0  0  0
   10.4100   -0.7180   23.0490 C   0  0  0  0  0  0  0  0  0  0  0  0
   10.5780    0.3630   23.9410 C   0  0  0  0  0  0  0  0  0  0  0  0
    5.5340    1.1010   17.8590 C   0  0  0  0  0  3  0  0  0  0  0  0
    3.8190    1.9470   19.3860 C   0  0  0  0  0  3  0  0  0  0  0  0
    4.9940    0.6490   21.5040 C   0  0  0  0  0  3  0  0  0  0  0  0
    6.7100   -0.1830   19.9520 C   0  0  0  0  0  0  0  0  0  0  0  0
    4.9570    1.2120   19.1450 C   0  0  0  0  0  0  0  0  0  0  0  0
    5.5560    0.5630   20.2150 C   0  0  0  0  0  0  0  0  0  0  0  0
    7.3480   -0.8430   21.0330 N   0  0  0  0  0  2  0  0  0  0  0  0
    9.5690    2.3860   24.7680 N   0  0  0  0  0  2  0  0  0  0  0  0
    9.0670   -1.1710   22.6690 C   0  0  0  0  0  2  0  0  0  0  0  0
    9.3990    0.9980   24.6130 C   0  0  0  0  0  2  0  0  0  0  0  0
    7.0970    2.8390   23.6920 C   0  0  0  0  0  1  0  0  0  0  0  0
    8.6540    3.5000   24.0340 S   0  0  1  0  0  6  0  0  0  0  0  0
  2  6  2  0
  6 22  1  0
  6 24  1  0
 22 19  1  0
 19 21  1  0
 19  7  2  0
 21 18  2  0
 21 20  1  0
 18 12  1  0
 12 11  2  0
 11 17  1  0
 17 20  2  0
 20 16  1  0
 16  5  2  0
  5  7  1  0
 24 14  1  0
 14  9  2  0
 14 15  1  0
  9 13  1  0
 13  1  1  0
 13  8  2  0
  8 10  1  0
 10 15  2  0
 15 25  1  0
 25 23  1  0
 23 27  1  0
 27  3  2  0
 27  4  2  0
 27 26  1  1
M  END
