predicted
     RDKit          3D

 16 17  0  0  0  0  0  0  0  0999 V2000
   11.7420   -4.0920   25.8740 Cl  0  0  0  0  0  0  0  0  0  0  0  0
    6.0440   -5.1200   19.0200 O   0  0  0  0  0  0  0  0  0  0  0  0
    9.0470   -3.7830   24.6720 S   0  0  0  0  0  0  0  0  0  0  0  0
    6.4490   -4.1700   19.6170 C   0  0  0  0  0  0  0  0  0  0  0  0
    6.2420   -4.1250   20.9370 N   0  0  0  0  0  0  0  0  0  0  0  0
    7.1170   -3.0130   18.9530 C   0  0  0  0  0  1  0  0  0  0  0  0
    5.7670   -5.2930   21.6740 C   0  0  0  0  0  2  0  0  0  0  0  0
    6.4590   -2.8580   21.6300 C   0  0  0  0  0  2  0  0  0  0  0  0
    8.0170   -4.6290   26.7270 C   0  0  0  0  0  2  0  0  0  0  0  0
    9.3420   -4.6450   26.9230 C   0  0  0  0  0  2  0  0  0  0  0  0
    6.0780   -5.3160   23.0210 C   0  0  0  0  0  2  0  0  0  0  0  0
    6.7440   -2.9390   22.9800 C   0  0  0  0  0  2  0  0  0  0  0  0
    6.3150   -4.0630   24.9850 C   0  0  0  0  0  2  0  0  0  0  0  0
    7.6780   -4.1990   25.5230 C   0  0  0  0  0  3  0  0  0  0  0  0
   10.0160   -4.1890   25.8920 C   0  0  0  0  0  3  0  0  0  0  0  0
    6.1940   -4.0700   23.6200 N   0  0  0  0  0  3  0  0  0  0  0  0
  5  4  1  0
  5  7  1  0
  5  8  1  0
  6  4  1  0
  2  4  2  0
  7 11  1  0
  8 12  1  0
 12 16  1  0
 13 14  1  0
 13 16  1  0
 14  9  1  0
 14  3  1  0
  9 10  1  0
 10 15  1  0
 15  3  1  0
 15  1  1  0
 11 16  1  0
M  CHG  1  16   1
M  END
