predicted
     RDKit          3D

 30 33  0  0  0  0  0  0  0  0999 V2000
    6.9110   -3.7950   27.4140 O   0  0  0  0  0  0  0  0  0  0  0  0
    9.0030    0.9940   20.8030 O   0  0  0  0  0  0  0  0  0  0  0  0
    6.4960    0.3970   17.7080 N   0  0  0  0  0  0  0  0  0  0  0  0
    7.3010   -0.3420   18.4070 N   0  0  0  0  0  0  0  0  0  0  0  0
   13.5420   -1.6660   22.0020 S   0  0  0  0  0  0  0  0  0  0  0  0
    7.4480   -4.7640   26.9290 C   0  0  0  0  0  0  0  0  0  0  0  0
    8.6710   -0.0400   21.3820 C   0  0  0  0  0  0  0  0  0  0  0  0
   13.7510   -0.8870   23.5240 C   0  0  0  0  0  3  0  0  0  0  0  0
   11.9530   -0.9780   21.8400 C   0  0  0  0  0  3  0  0  0  0  0  0
    7.7280   -2.3840   25.1950 C   0  0  0  0  0  3  0  0  0  0  0  0
    9.2450   -3.7610   23.9520 C   0  0  0  0  0  3  0  0  0  0  0  0
    8.0400   -1.3190   24.4010 C   0  0  0  0  0  3  0  0  0  0  0  0
    9.5370   -2.6870   23.1750 C   0  0  0  0  0  3  0  0  0  0  0  0
   12.6590   -0.1230   23.8600 C   0  0  0  0  0  3  0  0  0  0  0  0
    3.8000    2.2580   19.4030 C   0  0  0  0  0  3  0  0  0  0  0  0
    4.1150    1.8670   20.6900 C   0  0  0  0  0  3  0  0  0  0  0  0
    8.3490   -3.6250   24.9960 C   0  0  0  0  0  0  0  0  0  0  0  0
    8.9370   -1.4690   23.3900 C   0  0  0  0  0  0  0  0  0  0  0  0
   11.6600   -0.1840   22.9370 C   0  0  0  0  0  0  0  0  0  0  0  0
    4.5320    1.8130   18.3150 C   0  0  0  0  0  3  0  0  0  0  0  0
    5.1810    1.0150   20.9260 C   0  0  0  0  0  3  0  0  0  0  0  0
    5.5820    0.9530   18.5060 C   0  0  0  0  0  0  0  0  0  0  0  0
    5.8960    0.5450   19.8360 C   0  0  0  0  0  0  0  0  0  0  0  0
    8.1110   -4.7610   25.7710 N   0  0  0  0  0  2  0  0  0  0  0  0
    7.4170   -6.0170   27.5560 N   0  0  0  0  0  2  0  0  0  0  0  0
    9.2490   -0.3530   22.5730 N   0  0  0  0  0  0  0  0  0  0  0  0
    6.9590   -0.2640   19.6800 N   0  0  0  0  0  0  0  0  0  0  0  0
    6.7480   -6.1870   28.7850 C   0  0  0  0  0  1  0  0  0  0  0  0
   10.3440    0.4870   23.0820 C   0  0  0  0  0  2  0  0  0  0  0  0
    7.6770   -0.9570   20.7850 C   0  0  0  0  0  2  0  0  0  0  0  0
  2  7  2  0
  7 30  1  0
  7 26  1  0
 30 27  1  0
 27 23  1  0
 27  4  1  0
 23 21  2  0
 23 22  1  0
 21 16  1  0
 16 15  2  0
 15 20  1  0
 20 22  2  0
 22  3  1  0
  3  4  2  0
 26 29  1  0
 26 18  1  0
 29 19  1  0
 19  9  2  0
 19 14  1  0
  9  5  1  0
  5  8  1  0
  8 14  2  0
 18 12  2  0
 18 13  1  0
 12 10  1  0
 10 17  2  0
 13 11  2  0
 11 17  1  0
 17 24  1  0
 24  6  1  0
  6  1  2  0
  6 25  1  0
 25 28  1  0
M  END
