predicted
     RDKit          3D

 26 28  0  0  0  0  0  0  0  0999 V2000
    6.2130   -2.4550   20.7650 O   0  0  0  0  0  0  0  0  0  0  0  0
    6.5650    1.0520   16.9090 O   0  0  0  0  0  0  0  0  0  0  0  0
   10.7470    1.5780   23.6300 O   0  0  0  0  0  0  0  0  0  0  0  0
    9.9560   -0.9620   23.3120 O   0  0  0  0  0  0  0  0  0  0  0  0
    6.5950   -1.3200   20.9730 C   0  0  0  0  0  0  0  0  0  0  0  0
   14.0000   -0.1050   23.1660 C   0  0  0  0  0  3  0  0  0  0  0  0
   13.5800   -1.4060   23.0320 C   0  0  0  0  0  3  0  0  0  0  0  0
   13.0640    0.9050   23.3640 C   0  0  0  0  0  3  0  0  0  0  0  0
   12.2460   -1.7100   23.0560 C   0  0  0  0  0  3  0  0  0  0  0  0
    3.4290    1.4230   22.2840 C   0  0  0  0  0  3  0  0  0  0  0  0
    2.9570    2.3540   21.4110 C   0  0  0  0  0  3  0  0  0  0  0  0
   11.7310    0.6100   23.4190 C   0  0  0  0  0  0  0  0  0  0  0  0
   11.3180   -0.6830   23.2650 C   0  0  0  0  0  0  0  0  0  0  0  0
    6.5750   -0.0600   18.9160 C   0  0  0  0  0  3  0  0  0  0  0  0
    4.4400    0.5940   21.9300 C   0  0  0  0  0  0  0  0  0  0  0  0
    6.0610   -0.2060   20.1980 C   0  0  0  0  0  0  0  0  0  0  0  0
    3.5050    2.4650   20.1490 C   0  0  0  0  0  3  0  0  0  0  0  0
    6.0820    0.9320   18.0550 C   0  0  0  0  0  0  0  0  0  0  0  0
    5.0250    0.6500   20.6410 C   0  0  0  0  0  0  0  0  0  0  0  0
    4.5420    1.6220   19.7530 C   0  0  0  0  0  0  0  0  0  0  0  0
    7.5050   -1.0810   21.9430 N   0  0  0  0  0  2  0  0  0  0  0  0
    5.0660    1.7310   18.4940 N   0  0  0  0  0  2  0  0  0  0  0  0
   11.0930    2.9050   23.4430 C   0  0  0  0  0  1  0  0  0  0  0  0
    9.5240   -2.1730   22.7570 C   0  0  0  0  0  2  0  0  0  0  0  0
    8.0500   -2.1800   22.7730 C   0  0  0  0  0  2  0  0  0  0  0  0
    4.8050   -0.2700   22.8450 F   0  0  0  0  0  0  0  0  0  0  0  0
 26 15  1  0
 15 10  2  0
 15 19  1  0
 10 11  1  0
 11 17  2  0
 17 20  1  0
 19 20  2  0
 19 16  1  0
 20 22  1  0
 22 18  1  0
 18  2  2  0
 18 14  1  0
 14 16  2  0
 16  5  1  0
  5  1  2  0
  5 21  1  0
 21 25  1  0
 25 24  1  0
 24  4  1  0
  4 13  1  0
 13 12  2  0
 13  9  1  0
 12  3  1  0
 12  8  1  0
  3 23  1  0
  9  7  2  0
  7  6  1  0
  6  8  2  0
M  END
