predicted
     RDKit          3D

 21 22  0  0  0  0  0  0  0  0999 V2000
   13.8970   -1.6640   21.7220 Cl  0  0  0  0  0  0  0  0  0  0  0  0
    8.9450    1.4380   21.0480 O   0  0  0  0  0  0  0  0  0  0  0  0
    6.5890    0.5020   17.6210 N   0  0  0  0  0  0  0  0  0  0  0  0
    8.4850    0.4800   21.6120 C   0  0  0  0  0  0  0  0  0  0  0  0
    5.3750    1.0330   17.7230 C   0  0  0  0  0  3  0  0  0  0  0  0
    7.2440    0.0760   18.7280 C   0  0  0  0  0  3  0  0  0  0  0  0
   12.4450    1.6270   23.4360 C   0  0  0  0  0  3  0  0  0  0  0  0
   13.3090    0.6920   22.9130 C   0  0  0  0  0  3  0  0  0  0  0  0
    4.7840    1.2570   18.9560 C   0  0  0  0  0  3  0  0  0  0  0  0
   11.0730    1.3930   23.4410 C   0  0  0  0  0  3  0  0  0  0  0  0
   11.4650   -0.7350   22.3520 C   0  0  0  0  0  3  0  0  0  0  0  0
   12.8050   -0.4840   22.3680 C   0  0  0  0  0  0  0  0  0  0  0  0
    6.7020    0.2720   19.9890 C   0  0  0  0  0  0  0  0  0  0  0  0
    5.4190    0.8170   20.0860 C   0  0  0  0  0  0  0  0  0  0  0  0
   10.5950    0.1790   22.9090 C   0  0  0  0  0  0  0  0  0  0  0  0
    7.4060   -0.1710   21.1720 N   0  0  0  0  0  2  0  0  0  0  0  0
    4.8220    1.0680   21.4470 C   0  0  0  0  0  1  0  0  0  0  0  0
    6.8680   -1.1670   24.8460 C   0  0  0  0  0  1  0  0  0  0  0  0
    7.5910   -0.0190   24.9530 C   0  0  0  0  0  2  0  0  0  0  0  0
    8.5390    0.5550   24.1280 C   0  0  0  0  0  2  0  0  0  0  0  0
    9.1160   -0.0920   22.8950 C   0  0  0  0  0  3  0  0  0  0  0  0
  1 12  1  0
 12  8  2  0
 12 11  1  0
  8  7  1  0
  7 10  2  0
 10 15  1  0
 11 15  2  0
 15 21  1  0
 21 20  1  0
 21  4  1  0
 20 19  1  0
 19 18  1  0
  4  2  2  0
  4 16  1  0
 16 13  1  0
 13 14  2  0
 13  6  1  0
 14 17  1  0
 14  9  1  0
  9  5  2  0
  5  3  1  0
  3  6  2  0
M  END
