predicted
     RDKit          3D

 38 43  0  0  0  0  0  0  0  0999 V2000
  -14.2310   -1.8440  -21.6080 Cl  0  0  0  0  0  0  0  0  0  0  0  0
   -8.1480    2.2130  -23.0000 O   0  0  0  0  0  0  0  0  0  0  0  0
   -9.7080    0.2480  -20.6980 O   0  0  0  0  0  0  0  0  0  0  0  0
   -7.0130    0.0680  -17.5150 N   0  0  0  0  0  0  0  0  0  0  0  0
   -6.9320    5.7860  -24.3530 N   0  0  0  0  0  2  0  0  0  0  0  0
   -9.3050   -2.8640  -24.5710 O   0  0  0  0  0  0  0  0  0  0  0  0
   -9.3580    2.1120  -23.2660 C   0  0  0  0  0  0  0  0  0  0  0  0
   -8.9310   -0.2030  -21.4820 C   0  0  0  0  0  0  0  0  0  0  0  0
   -8.0680    5.1310  -24.5780 C   0  0  0  0  0  3  0  0  0  0  0  0
   -7.5570   -0.3060  -18.6600 C   0  0  0  0  0  3  0  0  0  0  0  0
  -12.6390   -3.2390  -23.2670 C   0  0  0  0  0  3  0  0  0  0  0  0
  -11.4650   -3.4760  -23.9420 C   0  0  0  0  0  3  0  0  0  0  0  0
  -11.6800   -1.2500  -22.2970 C   0  0  0  0  0  3  0  0  0  0  0  0
   -3.5740    2.2300  -19.9680 C   0  0  0  0  0  3  0  0  0  0  0  0
   -4.1490    1.8490  -21.1720 C   0  0  0  0  0  3  0  0  0  0  0  0
  -12.7430   -2.1300  -22.4360 C   0  0  0  0  0  0  0  0  0  0  0  0
  -10.4350   -2.5920  -23.8230 C   0  0  0  0  0  0  0  0  0  0  0  0
  -10.4770   -1.4580  -22.9610 C   0  0  0  0  0  0  0  0  0  0  0  0
   -8.7760    5.1040  -23.3740 C   0  0  0  0  0  0  0  0  0  0  0  0
   -5.9160    0.7440  -17.5280 C   0  0  0  0  0  3  0  0  0  0  0  0
   -4.1540    1.8790  -18.7620 C   0  0  0  0  0  3  0  0  0  0  0  0
   -5.3070    1.1210  -21.2040 C   0  0  0  0  0  3  0  0  0  0  0  0
   -7.0490   -0.0010  -19.9050 C   0  0  0  0  0  0  0  0  0  0  0  0
   -8.0210    5.8160  -22.4400 C   0  0  0  0  0  3  0  0  0  0  0  0
   -5.3000    1.1170  -18.7470 C   0  0  0  0  0  0  0  0  0  0  0  0
   -5.8860    0.7510  -19.9650 C   0  0  0  0  0  0  0  0  0  0  0  0
   -7.6500   -0.3960  -21.1200 N   0  0  0  0  0  2  0  0  0  0  0  0
  -10.2800    3.1260  -23.1530 N   0  0  0  0  0  0  0  0  0  0  0  0
   -6.9060    6.2030  -23.0380 N   0  0  0  0  0  0  0  0  0  0  0  0
   -8.1110   -2.3870  -23.9780 C   0  0  0  0  0  2  0  0  0  0  0  0
  -11.6870    2.8490  -23.0180 C   0  0  0  0  0  2  0  0  0  0  0  0
  -12.5940    3.5640  -23.9340 C   0  0  0  0  0  2  0  0  0  0  0  0
  -12.3720    5.0520  -23.7860 C   0  0  0  0  0  2  0  0  0  0  0  0
   -9.8810    0.7950  -23.6360 C   0  0  0  0  0  2  0  0  0  0  0  0
   -8.1870   -0.9280  -23.7440 C   0  0  0  0  0  2  0  0  0  0  0  0
  -10.9850    5.3030  -24.0970 C   0  0  0  0  0  2  0  0  0  0  0  0
   -9.3600   -0.4960  -22.9100 C   0  0  1  0  0  0  0  0  0  0  0  0
  -10.0200    4.5480  -23.0480 C   0  0  0  0  0  3  0  0  0  0  0  0
  3  8  2  0
  8 27  1  0
  8 37  1  0
 27 23  1  0
 23 26  1  0
 23 10  2  0
 26 22  2  0
 26 25  1  0
 22 15  1  0
 15 14  2  0
 14 21  1  0
 21 25  2  0
 25 20  1  0
 20  4  2  0
  4 10  1  0
 37 35  1  0
 37 18  1  0
 37 34  1  6
 35 30  1  0
 30  6  1  0
  6 17  1  0
 18 17  2  0
 18 13  1  0
 17 12  1  0
 12 11  2  0
 11 16  1  0
 13 16  2  0
 16  1  1  0
 34  7  1  0
  7  2  2  0
  7 28  1  0
 28 38  1  0
 28 31  1  0
 38 36  1  0
 38 19  1  0
 36 33  1  0
 33 32  1  0
 32 31  1  0
 19  9  2  0
 19 24  1  0
  9  5  1  0
  5 29  1  0
 29 24  2  0
M  END
