predicted
     RDKit          3D

 37 40  0  0  0  0  0  0  0  0999 V2000
   -5.9440   -2.4300  -21.5750 O   0  0  0  0  0  0  0  0  0  0  0  0
   -9.4250    1.1310  -20.9560 O   0  0  0  0  0  0  0  0  0  0  0  0
   -6.9840   -0.2230  -17.7370 N   0  0  0  0  0  0  0  0  0  0  0  0
   -7.5510   -4.9110  -21.5310 O   0  0  0  0  0  0  0  0  0  0  0  0
   -7.1070   -2.5730  -21.9230 C   0  0  0  0  0  0  0  0  0  0  0  0
   -8.4740    0.9100  -21.6950 C   0  0  0  0  0  0  0  0  0  0  0  0
   -5.8640    0.4250  -17.6330 C   0  0  0  0  0  3  0  0  0  0  0  0
   -7.5420   -0.4490  -18.9580 C   0  0  0  0  0  3  0  0  0  0  0  0
   -7.4760   -6.0850  -22.2360 C   0  0  0  0  0  3  0  0  0  0  0  0
   -7.4650   -3.8940  -22.3970 C   0  0  0  0  0  0  0  0  0  0  0  0
   -5.1860    0.9260  -18.7330 C   0  0  0  0  0  3  0  0  0  0  0  0
   -7.1940   -5.8080  -23.6090 C   0  0  0  0  0  3  0  0  0  0  0  0
   -7.0980   -4.3770  -23.6920 C   0  0  0  0  0  3  0  0  0  0  0  0
  -12.1200    5.6760  -23.8460 C   0  0  0  0  0  3  0  0  0  0  0  0
  -13.2930    5.1470  -23.3170 C   0  0  0  0  0  3  0  0  0  0  0  0
  -10.3090   -2.0400  -21.4890 C   0  0  0  0  0  3  0  0  0  0  0  0
   -9.6250   -1.3970  -23.6580 C   0  0  0  0  0  3  0  0  0  0  0  0
  -11.0360    4.8210  -24.1230 C   0  0  0  0  0  3  0  0  0  0  0  0
  -12.2990    2.9250  -23.3750 C   0  0  0  0  0  3  0  0  0  0  0  0
  -11.6080   -2.1110  -21.9050 C   0  0  0  0  0  3  0  0  0  0  0  0
  -10.9430   -1.4830  -24.0980 C   0  0  0  0  0  3  0  0  0  0  0  0
   -5.7890    0.7270  -19.9990 C   0  0  0  0  0  3  0  0  0  0  0  0
  -13.3800    3.7860  -23.0860 C   0  0  0  0  0  0  0  0  0  0  0  0
   -9.2930   -1.6780  -22.3590 C   0  0  0  0  0  0  0  0  0  0  0  0
  -11.1270    3.4740  -23.8650 C   0  0  0  0  0  0  0  0  0  0  0  0
  -11.9810   -1.8440  -23.2170 C   0  0  0  0  0  0  0  0  0  0  0  0
   -6.9180   -0.0380  -20.1210 C   0  0  0  0  0  0  0  0  0  0  0  0
   -8.1270    1.6780  -22.7090 N   0  0  0  0  0  2  0  0  0  0  0  0
   -7.9840   -1.5390  -21.8830 N   0  0  0  0  0  0  0  0  0  0  0  0
  -13.7250   -3.1420  -24.4060 C   0  0  0  0  0  1  0  0  0  0  0  0
  -14.2930   -1.8190  -22.4270 C   0  0  0  0  0  1  0  0  0  0  0  0
  -13.7010   -0.6440  -24.4640 C   0  0  0  0  0  1  0  0  0  0  0  0
   -9.9380    2.5860  -24.1050 C   0  0  0  0  0  2  0  0  0  0  0  0
   -8.9100    2.8470  -23.0530 C   0  0  0  0  0  2  0  0  0  0  0  0
  -13.3990   -1.8850  -23.6310 C   0  0  1  0  0  0  0  0  0  0  0  0
   -7.5020   -0.2220  -21.5040 C   0  0  0  0  0  3  0  0  0  0  0  0
  -14.4990    3.2700  -22.5590 F   0  0  0  0  0  0  0  0  0  0  0  0
  1  5  2  0
  5 10  1  0
  5 29  1  0
 10  4  1  0
 10 13  2  0
  4  9  1  0
  9 12  2  0
 12 13  1  0
 29 24  1  0
 29 36  1  0
 24 16  2  0
 24 17  1  0
 16 20  1  0
 20 26  2  0
 17 21  2  0
 21 26  1  0
 26 35  1  0
 35 30  1  1
 35 31  1  0
 35 32  1  0
 36 27  1  0
 36  6  1  0
 27  8  2  0
 27 22  1  0
  8  3  1  0
  3  7  2  0
  7 11  1  0
 11 22  2  0
  6  2  2  0
  6 28  1  0
 28 34  1  0
 34 33  1  0
 33 25  1  0
 25 19  2  0
 25 18  1  0
 19 23  1  0
 23 37  1  0
 23 15  2  0
 15 14  1  0
 14 18  2  0
M  END
