predicted
     RDKit          3D

 20 22  0  0  0  0  0  0  0  0999 V2000
  -13.9160   -1.8210  -21.7580 Cl  0  0  0  0  0  0  0  0  0  0  0  0
   -8.6310    0.7330  -21.1000 O   0  0  0  0  0  0  0  0  0  0  0  0
   -7.1180   -0.0680  -18.1540 N   0  0  0  0  0  0  0  0  0  0  0  0
   -6.3090    0.7670  -17.5180 N   0  0  0  0  0  0  0  0  0  0  0  0
   -8.3000   -0.4000  -21.2400 C   0  0  0  0  0  0  0  0  0  0  0  0
  -11.5920    0.5950  -23.9700 C   0  0  0  0  0  3  0  0  0  0  0  0
  -12.7100    0.0070  -23.3810 C   0  0  0  0  0  3  0  0  0  0  0  0
  -10.3220    0.1510  -23.6340 C   0  0  0  0  0  3  0  0  0  0  0  0
  -11.3100   -1.4930  -22.1290 C   0  0  0  0  0  3  0  0  0  0  0  0
   -3.5510    2.3460  -19.4600 C   0  0  0  0  0  3  0  0  0  0  0  0
   -3.7820    1.6380  -20.6440 C   0  0  0  0  0  3  0  0  0  0  0  0
  -12.5540   -1.0410  -22.4680 C   0  0  0  0  0  0  0  0  0  0  0  0
  -10.2260   -0.9000  -22.7140 C   0  0  0  0  0  0  0  0  0  0  0  0
   -4.3190    2.0580  -18.2740 C   0  0  0  0  0  3  0  0  0  0  0  0
   -6.7430   -0.1640  -19.4040 C   0  0  0  0  0  0  0  0  0  0  0  0
   -4.9170    0.8260  -20.7670 C   0  0  0  0  0  3  0  0  0  0  0  0
   -5.4070    1.1760  -18.4010 C   0  0  0  0  0  0  0  0  0  0  0  0
   -7.3840   -0.9680  -20.4270 N   0  0  0  0  0  2  0  0  0  0  0  0
   -5.6730    0.5880  -19.6090 N   0  0  0  0  0  0  0  0  0  0  0  0
   -8.8490   -1.3380  -22.3310 C   0  0  0  0  0  2  0  0  0  0  0  0
  2  5  2  0
  5 20  1  0
  5 18  1  0
 20 13  1  0
 13  8  2  0
 13  9  1  0
  8  6  1  0
  6  7  2  0
  7 12  1  0
  9 12  2  0
 12  1  1  0
 18 15  1  0
 15 19  1  0
 15  3  2  0
 19 17  1  0
 19 16  1  0
 17  4  2  0
 17 14  1  0
  4  3  1  0
 16 11  2  0
 11 10  1  0
 10 14  2  0
M  END
