predicted
     RDKit          3D

 28 30  0  0  0  0  0  0  0  0999 V2000
    5.2880   -4.1060   19.9780 O   0  0  0  0  0  0  0  0  0  0  0  0
    8.0190   -0.7380   22.7890 O   0  0  0  0  0  0  0  0  0  0  0  0
    7.1410    0.0030   24.8670 O   0  0  0  0  0  0  0  0  0  0  0  0
    6.8500    0.2910   17.6590 N   0  0  0  0  0  0  0  0  0  0  0  0
    8.4020   -2.6010   20.5280 O   0  0  0  0  0  1  0  0  0  0  0  0
    6.2100   -3.5440   20.4900 C   0  0  0  0  0  0  0  0  0  0  0  0
    5.7260    0.8220   18.0850 C   0  0  0  0  0  3  0  0  0  0  0  0
    7.3810   -0.8410   18.1970 C   0  0  0  0  0  3  0  0  0  0  0  0
    5.0470    0.2290   19.0920 C   0  0  0  0  0  3  0  0  0  0  0  0
    3.9570   -5.3180   23.8850 C   0  0  0  0  0  3  0  0  0  0  0  0
    3.7240   -4.3870   24.8520 C   0  0  0  0  0  3  0  0  0  0  0  0
    8.9600   -3.4050   26.7320 C   0  0  0  0  0  3  0  0  0  0  0  0
    9.5280   -4.3120   24.6250 C   0  0  0  0  0  3  0  0  0  0  0  0
    4.8510   -5.0460   22.8400 C   0  0  0  0  0  3  0  0  0  0  0  0
    4.3390   -3.1410   24.7740 C   0  0  0  0  0  3  0  0  0  0  0  0
    5.5620   -0.9680   19.6140 C   0  0  0  0  0  3  0  0  0  0  0  0
    8.2390   -2.3850   26.1010 C   0  0  0  0  0  3  0  0  0  0  0  0
    8.8230   -3.3030   23.9860 C   0  0  0  0  0  3  0  0  0  0  0  0
    9.6300   -4.3520   25.9990 C   0  0  0  0  0  0  0  0  0  0  0  0
    5.5020   -3.8280   22.7780 C   0  0  0  0  0  0  0  0  0  0  0  0
    5.2030   -2.8650   23.7360 C   0  0  0  0  0  0  0  0  0  0  0  0
    6.7410   -1.5020   19.1630 C   0  0  0  0  0  0  0  0  0  0  0  0
    8.1910   -2.3460   24.7510 C   0  0  0  0  0  0  0  0  0  0  0  0
    6.4090   -3.4850   21.7970 N   0  0  0  0  0  2  0  0  0  0  0  0
    5.7860   -1.5790   23.5500 N   0  0  0  0  0  2  0  0  0  0  0  0
    7.3080   -2.8430   19.7160 C   0  0  0  0  0  3  0  0  0  0  0  0
    7.3150   -1.1060   23.9850 S   0  0  2  0  0  6  0  0  0  0  0  0
   10.2980   -5.3280   26.6080 F   0  0  0  0  0  0  0  0  0  0  0  0
 28 19  1  0
 19 12  2  0
 19 13  1  0
 12 17  1  0
 17 23  2  0
 13 18  2  0
 18 23  1  0
 23 27  1  0
 27  2  2  0
 27  3  2  0
 27 25  1  1
 25 21  1  0
 21 15  2  0
 21 20  1  0
 15 11  1  0
 11 10  2  0
 10 14  1  0
 14 20  2  0
 20 24  1  0
 24  6  1  0
  6  1  2  0
  6 26  1  0
 26  5  1  0
 26 22  1  0
 22  8  2  0
 22 16  1  0
  8  4  1  0
  4  7  2  0
  7  9  1  0
  9 16  2  0
M  END
