predicted
     RDKit          3D

 33 37  0  0  0  0  0  0  0  0999 V2000
  -14.1770   -1.9720  -21.7170 Cl  0  0  0  0  0  0  0  0  0  0  0  0
   -6.1230   -6.1450  -20.3080 N   0  0  0  0  0  0  0  0  0  0  0  0
   -9.3350   -0.1120  -21.5330 O   0  0  0  0  0  0  0  0  0  0  0  0
   -6.9790   -4.7920  -26.0540 O   0  0  0  0  0  0  0  0  0  0  0  0
   -5.8350   -3.2160  -24.6540 O   0  0  0  0  0  0  0  0  0  0  0  0
   -6.2400   -6.2940  -21.4920 C   0  0  0  0  0  0  0  0  0  0  0  0
   -7.0310   -0.0770  -17.6230 N   0  0  0  0  0  0  0  0  0  0  0  0
   -8.7120   -1.1390  -21.6980 C   0  0  0  0  0  0  0  0  0  0  0  0
   -7.5400   -0.7480  -18.6430 C   0  0  0  0  0  3  0  0  0  0  0  0
  -13.0840   -2.8150  -24.0170 C   0  0  0  0  0  3  0  0  0  0  0  0
  -12.0090   -3.0950  -24.8550 C   0  0  0  0  0  3  0  0  0  0  0  0
  -11.5750   -2.1010  -22.3260 C   0  0  0  0  0  3  0  0  0  0  0  0
   -3.7460    1.7490  -20.5640 C   0  0  0  0  0  3  0  0  0  0  0  0
   -4.2860    1.0740  -21.6260 C   0  0  0  0  0  3  0  0  0  0  0  0
  -12.8450   -2.3050  -22.7610 C   0  0  0  0  0  0  0  0  0  0  0  0
  -10.6810   -2.8630  -24.4190 C   0  0  0  0  0  0  0  0  0  0  0  0
  -10.4680   -2.3150  -23.1450 C   0  0  0  0  0  0  0  0  0  0  0  0
   -5.9670    0.6840  -17.8140 C   0  0  0  0  0  3  0  0  0  0  0  0
   -4.2870    1.6470  -19.3080 C   0  0  0  0  0  3  0  0  0  0  0  0
   -5.3640    0.2700  -21.4590 C   0  0  0  0  0  3  0  0  0  0  0  0
   -7.0680   -0.6780  -19.9360 C   0  0  0  0  0  0  0  0  0  0  0  0
   -5.3880    0.8310  -19.0930 C   0  0  0  0  0  0  0  0  0  0  0  0
   -5.9410    0.1270  -20.1740 C   0  0  0  0  0  0  0  0  0  0  0  0
   -7.6160   -1.4790  -20.9740 N   0  0  0  0  0  2  0  0  0  0  0  0
   -8.2820   -3.1080  -24.6950 N   0  0  0  0  0  0  0  0  0  0  0  0
   -9.5520   -3.1720  -25.3750 C   0  0  0  0  0  2  0  0  0  0  0  0
   -4.5900   -5.6050  -23.1890 C   0  0  0  0  0  2  0  0  0  0  0  0
   -5.2590   -6.8680  -23.6830 C   0  0  0  0  0  2  0  0  0  0  0  0
   -5.9810   -5.8790  -22.8730 C   0  0  1  0  0  0  0  0  0  0  0  0
   -8.1550   -2.0250  -23.8650 C   0  0  0  0  0  2  0  0  0  0  0  0
   -7.1660   -5.1490  -23.4350 C   0  0  0  0  0  2  0  0  0  0  0  0
   -9.0890   -2.1630  -22.6940 C   0  0  0  0  0  3  0  0  0  0  0  0
   -7.0020   -4.0900  -24.8130 S   0  0  1  0  0  6  0  0  0  0  0  0
  2  6  3  0
 29  6  1  1
 29 27  1  0
 29 28  1  0
 29 31  1  0
 27 28  1  0
 33 31  1  1
 33  4  2  0
 33  5  2  0
 33 25  1  0
 25 26  1  0
 25 30  1  0
 26 16  1  0
 30 32  1  0
 32 17  1  0
 32  8  1  0
 17 16  2  0
 17 12  1  0
 16 11  1  0
 11 10  2  0
 10 15  1  0
 12 15  2  0
 15  1  1  0
  8  3  2  0
  8 24  1  0
 24 21  1  0
 21 23  1  0
 21  9  2  0
 23 20  2  0
 23 22  1  0
 20 14  1  0
 14 13  2  0
 13 19  1  0
 19 22  2  0
 22 18  1  0
 18  7  2  0
  7  9  1  0
M  END
