predicted
     RDKit          3D

 23 25  0  0  0  0  0  0  0  0999 V2000
   13.9960   -1.0000   22.4290 Cl  0  0  0  0  0  0  0  0  0  0  0  0
   12.8000    5.0530   23.3280 N   0  0  0  0  0  0  0  0  0  0  0  0
    8.9400    1.7970   21.0480 O   0  0  0  0  0  0  0  0  0  0  0  0
   12.6010    3.8770   23.3140 C   0  0  0  0  0  0  0  0  0  0  0  0
    6.6190    0.8150   17.7360 N   0  0  0  0  0  0  0  0  0  0  0  0
    8.5360    0.8860   21.6690 C   0  0  0  0  0  0  0  0  0  0  0  0
    7.2880    0.3980   18.8280 C   0  0  0  0  0  3  0  0  0  0  0  0
   13.2410    1.5580   22.9570 C   0  0  0  0  0  3  0  0  0  0  0  0
   11.5450   -0.1420   22.7340 C   0  0  0  0  0  3  0  0  0  0  0  0
   10.9550    2.1630   23.2090 C   0  0  0  0  0  3  0  0  0  0  0  0
    3.1040    2.3470   20.5560 C   0  0  0  0  0  3  0  0  0  0  0  0
    3.7610    1.9110   21.6590 C   0  0  0  0  0  3  0  0  0  0  0  0
   12.8460    0.2400   22.7260 C   0  0  0  0  0  0  0  0  0  0  0  0
   12.2810    2.5230   23.1600 C   0  0  0  0  0  0  0  0  0  0  0  0
   10.6120    0.8270   23.0040 C   0  0  0  0  0  0  0  0  0  0  0  0
    5.4440    1.3810   17.8580 C   0  0  0  0  0  3  0  0  0  0  0  0
    3.6540    2.2020   19.3040 C   0  0  0  0  0  3  0  0  0  0  0  0
    4.9540    1.3250   21.5490 C   0  0  0  0  0  3  0  0  0  0  0  0
    6.7720    0.5440   20.0790 C   0  0  0  0  0  0  0  0  0  0  0  0
    4.8520    1.5930   19.1250 C   0  0  0  0  0  0  0  0  0  0  0  0
    5.5280    1.1470   20.2710 C   0  0  0  0  0  0  0  0  0  0  0  0
    7.5130    0.1250   21.2470 N   0  0  0  0  0  2  0  0  0  0  0  0
    9.1510    0.4460   23.0000 C   0  0  0  0  0  2  0  0  0  0  0  0
  2  4  3  0
  4 14  1  0
 14  8  2  0
 14 10  1  0
  8 13  1  0
 13  1  1  0
 13  9  2  0
 10 15  2  0
 15  9  1  0
 15 23  1  0
 23  6  1  0
  6  3  2  0
  6 22  1  0
 22 19  1  0
 19 21  1  0
 19  7  2  0
 21 18  2  0
 21 20  1  0
 18 12  1  0
 12 11  2  0
 11 17  1  0
 17 20  2  0
 20 16  1  0
 16  5  2  0
  5  7  1  0
M  END
