predicted
     RDKit          3D

 30 33  0  0  0  0  0  0  0  0999 V2000
   13.4640   -0.4830   21.5810 Cl  0  0  0  0  0  0  0  0  0  0  0  0
    8.5750    1.1520   21.3510 O   0  0  0  0  0  0  0  0  0  0  0  0
    5.4390   -2.3600   24.4040 O   0  0  0  0  0  0  0  0  0  0  0  0
    7.0820   -4.0380   24.9340 O   0  0  0  0  0  0  0  0  0  0  0  0
    6.3510    0.9620   17.5210 N   0  0  0  0  0  0  0  0  0  0  0  0
    7.9970    0.1120   21.6070 C   0  0  0  0  0  0  0  0  0  0  0  0
    6.8790    0.3460   18.5710 C   0  0  0  0  0  3  0  0  0  0  0  0
   12.4500   -1.1080   23.9480 C   0  0  0  0  0  3  0  0  0  0  0  0
   11.4100   -1.3590   24.8260 C   0  0  0  0  0  3  0  0  0  0  0  0
   10.8750   -0.6570   22.2530 C   0  0  0  0  0  3  0  0  0  0  0  0
    2.8380    2.5410   20.3350 C   0  0  0  0  0  3  0  0  0  0  0  0
    3.3900    1.9060   21.4240 C   0  0  0  0  0  3  0  0  0  0  0  0
   12.1650   -0.7520   22.6700 C   0  0  0  0  0  0  0  0  0  0  0  0
   10.0730   -1.2410   24.4140 C   0  0  0  0  0  0  0  0  0  0  0  0
    9.7970   -0.8560   23.1140 C   0  0  0  0  0  0  0  0  0  0  0  0
    5.2210    1.6380   17.6530 C   0  0  0  0  0  3  0  0  0  0  0  0
    3.4330    2.4810   19.0880 C   0  0  0  0  0  3  0  0  0  0  0  0
    4.5370    1.1890   21.3120 C   0  0  0  0  0  3  0  0  0  0  0  0
    6.3470    0.3770   19.8420 C   0  0  0  0  0  0  0  0  0  0  0  0
    4.5860    1.7490   18.9130 C   0  0  0  0  0  0  0  0  0  0  0  0
    5.1500    1.0940   20.0320 C   0  0  0  0  0  0  0  0  0  0  0  0
    6.9220   -0.3450   20.9250 N   0  0  0  0  0  2  0  0  0  0  0  0
    6.1130   -2.5520   26.7050 N   0  0  0  0  0  0  0  0  0  0  0  0
    7.7250   -1.6130   24.8130 N   0  0  0  0  0  0  0  0  0  0  0  0
    6.5980   -3.4490   27.6610 C   0  0  0  0  0  1  0  0  0  0  0  0
    5.5040   -1.2880   27.0570 C   0  0  0  0  0  1  0  0  0  0  0  0
    8.9910   -1.4760   25.4180 C   0  0  0  0  0  2  0  0  0  0  0  0
    7.4880   -0.6530   23.8510 C   0  0  0  0  0  2  0  0  0  0  0  0
    8.4030   -0.8090   22.6840 C   0  0  0  0  0  3  0  0  0  0  0  0
    6.5980   -2.6890   25.1550 S   0  0  2  0  0  6  0  0  0  0  0  0
  1 13  1  0
 13 10  2  0
 13  8  1  0
 10 15  1  0
  8  9  2  0
  9 14  1  0
 14 27  1  0
 14 15  2  0
 27 24  1  0
 24 30  1  0
 24 28  1  0
 30  3  2  0
 30  4  2  0
 30 23  1  6
 23 26  1  0
 23 25  1  0
 15 29  1  0
 29 28  1  0
 29  6  1  0
  6  2  2  0
  6 22  1  0
 22 19  1  0
 19 21  1  0
 19  7  2  0
 21 18  2  0
 21 20  1  0
 18 12  1  0
 12 11  2  0
 11 17  1  0
 17 20  2  0
 20 16  1  0
 16  5  2  0
  5  7  1  0
M  END
