predicted
     RDKit          3D

 16 17  0  0  0  0  0  0  0  0999 V2000
    9.6180   -4.8050   25.4590 O   0  0  0  0  0  0  0  0  0  0  0  0
    6.1440   -5.2100   19.5940 O   0  0  0  0  0  0  0  0  0  0  0  0
    6.4710   -3.8410   26.4150 O   0  0  0  0  0  0  0  0  0  0  0  0
    8.5510   -4.3800   25.2370 C   0  0  0  0  0  0  0  0  0  0  0  0
    6.5370   -4.1980   20.1530 C   0  0  0  0  0  0  0  0  0  0  0  0
    5.8600   -4.2540   27.6180 C   0  0  0  0  0  3  0  0  0  0  0  0
    7.6370   -4.4590   26.3800 C   0  0  0  0  0  0  0  0  0  0  0  0
    6.6820   -5.1370   28.2890 C   0  0  0  0  0  3  0  0  0  0  0  0
    7.8570   -5.2350   27.5150 C   0  0  0  0  0  3  0  0  0  0  0  0
    8.1780   -4.0080   23.9090 N   0  0  0  0  0  0  0  0  0  0  0  0
    6.6920   -4.2570   21.5370 N   0  0  0  0  0  0  0  0  0  0  0  0
    6.9200   -2.9730   19.3730 C   0  0  0  0  0  1  0  0  0  0  0  0
    7.4750   -2.8240   23.5180 C   0  0  0  0  0  2  0  0  0  0  0  0
    8.6190   -4.7830   22.8440 C   0  0  0  0  0  2  0  0  0  0  0  0
    6.2750   -3.2070   22.5350 C   0  0  0  0  0  2  0  0  0  0  0  0
    7.3210   -5.3720   22.0830 C   0  0  0  0  0  2  0  0  0  0  0  0
 11  5  1  0
 11 16  1  0
 11 15  1  0
 12  5  1  0
  2  5  2  0
  6  8  2  0
  6  3  1  0
 16 14  1  0
 14 10  1  0
 13 15  1  0
 13 10  1  0
  4  7  1  0
  4 10  1  0
  4  1  2  0
  7  9  2  0
  7  3  1  0
  9  8  1  0
M  END
