predicted
     RDKit          3D

 35 40  0  0  0  0  0  0  0  0999 V2000
   13.8960   -1.6130   21.2860 Cl  0  0  0  0  0  0  0  0  0  0  0  0
    6.4290   -4.2140   26.8650 N   0  0  0  0  0  0  0  0  0  0  0  0
    9.1590    1.3000   21.5940 O   0  0  0  0  0  0  0  0  0  0  0  0
    8.3340    0.4260   27.8980 O   0  0  0  0  0  0  0  0  0  0  0  0
    7.1630   -0.9900   26.3900 O   0  0  0  0  0  0  0  0  0  0  0  0
    7.4130   -3.6520   26.9930 C   0  0  0  0  0  0  0  0  0  0  0  0
    6.7380    0.1860   17.9440 N   0  0  0  0  0  0  0  0  0  0  0  0
    8.7610    0.2160   21.9810 C   0  0  0  0  0  0  0  0  0  0  0  0
    7.4250   -0.2620   18.9820 C   0  0  0  0  0  3  0  0  0  0  0  0
   13.4940   -0.1800   23.5540 C   0  0  0  0  0  3  0  0  0  0  0  0
   12.7190    0.3690   24.5440 C   0  0  0  0  0  3  0  0  0  0  0  0
   11.5200   -0.9530   22.4030 C   0  0  0  0  0  3  0  0  0  0  0  0
    3.3850    1.9340   20.9330 C   0  0  0  0  0  3  0  0  0  0  0  0
    4.0720    1.4610   22.0260 C   0  0  0  0  0  3  0  0  0  0  0  0
   12.8950   -0.8520   22.4860 C   0  0  0  0  0  0  0  0  0  0  0  0
   11.3270    0.2470   24.4630 C   0  0  0  0  0  0  0  0  0  0  0  0
   10.7180   -0.3730   23.3640 C   0  0  0  0  0  0  0  0  0  0  0  0
    5.5660    0.8260   18.1280 C   0  0  0  0  0  3  0  0  0  0  0  0
    3.8660    1.7390   19.6440 C   0  0  0  0  0  3  0  0  0  0  0  0
    5.2490    0.7980   21.8550 C   0  0  0  0  0  3  0  0  0  0  0  0
    7.0020   -0.0740   20.3110 C   0  0  0  0  0  0  0  0  0  0  0  0
    5.0540    1.0630   19.4340 C   0  0  0  0  0  0  0  0  0  0  0  0
    5.7630    0.5910   20.5540 C   0  0  0  0  0  0  0  0  0  0  0  0
    7.7600   -0.5310   21.4120 N   0  0  0  0  0  0  0  0  0  0  0  0
    9.3130   -0.0890   25.6640 N   0  0  0  0  0  0  0  0  0  0  0  0
   10.5210    0.7370   25.6450 C   0  0  0  0  0  2  0  0  0  0  0  0
    7.6180   -1.8260   22.0760 C   0  0  0  0  0  2  0  0  0  0  0  0
    9.6120   -4.5830   27.4580 C   0  0  0  0  0  2  0  0  0  0  0  0
    9.6150   -4.1580   26.0540 C   0  0  0  0  0  2  0  0  0  0  0  0
    8.8610   -3.4610   27.0410 C   0  0  1  0  0  0  0  0  0  0  0  0
    8.5910    0.2870   24.4000 C   0  0  0  0  0  2  0  0  0  0  0  0
    8.6860   -1.8520   23.1490 C   0  0  0  0  0  2  0  0  0  0  0  0
    9.2590   -2.0380   27.5780 C   0  0  0  0  0  2  0  0  0  0  0  0
    9.2360   -0.4390   23.2550 C   0  0  1  0  0  0  0  0  0  0  0  0
    8.4330   -0.6040   26.9160 S   0  0  1  0  0  6  0  0  0  0  0  0
  2  6  3  0
 30  6  1  6
 30 28  1  0
 30 29  1  0
 30 33  1  0
 28 29  1  0
 35 33  1  1
 35  4  2  0
 35  5  2  0
 35 25  1  0
 25 26  1  0
 25 31  1  0
 26 16  1  0
 34 31  1  1
 34 17  1  0
 34  8  1  0
 34 32  1  0
 17 16  2  0
 17 12  1  0
 16 11  1  0
 11 10  2  0
 10 15  1  0
 12 15  2  0
 15  1  1  0
  8  3  2  0
  8 24  1  0
 24 27  1  0
 24 21  1  0
 27 32  1  0
 21 23  1  0
 21  9  2  0
 23 20  2  0
 23 22  1  0
 20 14  1  0
 14 13  2  0
 13 19  1  0
 19 22  2  0
 22 18  1  0
 18  7  2  0
  7  9  1  0
M  END
