predicted
     RDKit          3D

 19 21  0  0  0  0  0  0  0  0999 V2000
   -8.4130   -0.0490  -21.2460 O   0  0  0  0  0  0  0  0  0  0  0  0
   -4.7930    1.7940  -17.6060 N   0  0  0  0  0  0  0  0  0  0  0  0
   -7.6460   -0.7960  -21.8230 C   0  0  0  0  0  0  0  0  0  0  0  0
   -3.9860    2.6030  -18.3320 C   0  0  0  0  0  3  0  0  0  0  0  0
   -3.8100    2.4640  -19.6730 C   0  0  0  0  0  3  0  0  0  0  0  0
   -4.4780    1.4610  -20.3280 C   0  0  0  0  0  3  0  0  0  0  0  0
   -6.0650   -0.4900  -19.9060 C   0  0  0  0  0  0  0  0  0  0  0  0
   -6.6180   -0.9120  -18.7610 C   0  0  0  0  0  3  0  0  0  0  0  0
   -5.2790    0.5970  -19.5990 C   0  0  0  0  0  0  0  0  0  0  0  0
   -5.4250    0.7910  -18.2130 C   0  0  0  0  0  0  0  0  0  0  0  0
   -7.9940   -1.3480  -23.0360 N   0  0  0  0  0  0  0  0  0  0  0  0
   -6.2390   -0.1410  -17.7400 N   0  0  0  0  0  2  0  0  0  0  0  0
   -6.3220   -1.1210  -21.2400 C   0  0  0  0  0  2  0  0  0  0  0  0
   -6.9890   -1.8330  -23.9760 C   0  0  0  0  0  2  0  0  0  0  0  0
   -9.3400   -1.4090  -23.5230 C   0  0  0  0  0  2  0  0  0  0  0  0
   -9.0140   -4.4970  -25.6660 C   0  0  0  0  0  1  0  0  0  0  0  0
   -7.2930   -3.1980  -24.5110 C   0  0  0  0  0  2  0  0  0  0  0  0
   -9.6560   -2.7980  -24.0410 C   0  0  0  0  0  2  0  0  0  0  0  0
   -8.6710   -3.2360  -25.0850 N   0  0  0  0  0  3  0  0  0  0  0  0
 16 19  1  0
 10  9  1  0
 10 12  1  0
 10  2  2  0
  4  5  2  0
  4  2  1  0
  5  6  1  0
  6  9  2  0
  9  7  1  0
 18 15  1  0
 18 19  1  0
 15 11  1  0
 14 17  1  0
 14 11  1  0
 17 19  1  0
  3 13  1  0
  3 11  1  0
  3  1  2  0
 13  7  1  0
  7  8  2  0
  8 12  1  0
M  CHG  1  19   1
M  END
