predicted
     RDKit          3D

 19 20  0  0  0  0  0  0  0  0999 V2000
   13.4440   -2.0390   22.4520 O   0  0  0  0  0  0  0  0  0  0  0  0
    8.5600    1.4500   20.9510 O   0  0  0  0  0  0  0  0  0  0  0  0
    7.1750   -0.3840   18.3950 O   0  0  0  0  0  1  0  0  0  0  0  0
   12.8610   -1.1370   23.0120 C   0  0  0  0  0  0  0  0  0  0  0  0
    8.1380    0.4410   21.4290 C   0  0  0  0  0  0  0  0  0  0  0  0
    4.3110    1.8840   18.5780 C   0  0  0  0  0  3  0  0  0  0  0  0
    4.2140    2.0830   19.9500 C   0  0  0  0  0  3  0  0  0  0  0  0
    5.3080    1.0360   18.0560 C   0  0  0  0  0  3  0  0  0  0  0  0
    5.0870    1.4540   20.8050 C   0  0  0  0  0  3  0  0  0  0  0  0
    6.1790    0.4130   18.8930 C   0  0  0  0  0  0  0  0  0  0  0  0
    6.0680    0.6190   20.2770 C   0  0  0  0  0  0  0  0  0  0  0  0
    6.9400   -0.0650   21.1720 N   0  0  0  0  0  2  0  0  0  0  0  0
   11.5420   -1.1900   23.2950 N   0  0  0  0  0  0  0  0  0  0  0  0
   13.6360    0.0610   23.4840 C   0  0  0  0  0  1  0  0  0  0  0  0
   10.8520   -0.1630   24.0480 C   0  0  0  0  0  2  0  0  0  0  0  0
   10.6510   -2.1910   22.7120 C   0  0  0  0  0  2  0  0  0  0  0  0
    9.9700    0.5810   23.0660 C   0  0  0  0  0  2  0  0  0  0  0  0
    9.7450   -1.4410   21.7310 C   0  0  0  0  0  2  0  0  0  0  0  0
    8.9670   -0.3780   22.4490 C   0  0  0  0  0  3  0  0  0  0  0  0
 12 11  1  0
 12  5  1  0
 10  3  1  0
 10  8  2  0
 10 11  1  0
  8  6  1  0
 15 17  1  0
 15 13  1  0
 17 19  1  0
  4 14  1  0
  4 13  1  0
  4  1  2  0
  6  7  2  0
  7  9  1  0
  9 11  2  0
  5 19  1  0
  5  2  2  0
 19 18  1  0
 18 16  1  0
 16 13  1  0
M  END
