predicted
     RDKit          3D

 24 27  0  0  0  0  0  0  0  0999 V2000
   13.8450   -1.3930   21.4770 Cl  0  0  0  0  0  0  0  0  0  0  0  0
    9.0950    0.3050   21.4810 O   0  0  0  0  0  0  0  0  0  0  0  0
    6.8300    0.3710   17.7570 N   0  0  0  0  0  0  0  0  0  0  0  0
    9.5830   -3.1390   25.0750 O   0  0  0  0  0  0  0  0  0  0  0  0
    8.4380   -0.6560   21.7780 C   0  0  0  0  0  0  0  0  0  0  0  0
    7.3480   -0.3060   18.7860 C   0  0  0  0  0  3  0  0  0  0  0  0
   12.8590   -2.6660   23.6360 C   0  0  0  0  0  3  0  0  0  0  0  0
   11.8520   -3.0880   24.4830 C   0  0  0  0  0  3  0  0  0  0  0  0
   11.2870   -1.5410   22.2520 C   0  0  0  0  0  3  0  0  0  0  0  0
    3.4420    2.1250   20.6020 C   0  0  0  0  0  3  0  0  0  0  0  0
    3.9620    1.4520   21.6720 C   0  0  0  0  0  3  0  0  0  0  0  0
   12.5780   -1.8970   22.5350 C   0  0  0  0  0  0  0  0  0  0  0  0
   10.5550   -2.7310   24.2240 C   0  0  0  0  0  0  0  0  0  0  0  0
   10.2360   -1.9100   23.0880 C   0  0  0  0  0  0  0  0  0  0  0  0
    5.7430    1.1170   17.9030 C   0  0  0  0  0  3  0  0  0  0  0  0
    4.0100    2.0340   19.3530 C   0  0  0  0  0  3  0  0  0  0  0  0
    5.0680    0.6760   21.5360 C   0  0  0  0  0  3  0  0  0  0  0  0
    6.7990   -0.2500   20.0600 C   0  0  0  0  0  0  0  0  0  0  0  0
    5.1320    1.2500   19.1700 C   0  0  0  0  0  0  0  0  0  0  0  0
    5.6610    0.5560   20.2660 C   0  0  0  0  0  0  0  0  0  0  0  0
    7.3260   -1.0340   21.1340 N   0  0  0  0  0  2  0  0  0  0  0  0
    8.2950   -2.6990   24.9990 C   0  0  0  0  0  2  0  0  0  0  0  0
    7.9370   -1.7240   23.9740 C   0  0  0  0  0  2  0  0  0  0  0  0
    8.8310   -1.6290   22.8790 C   0  0  0  0  0  3  0  0  0  0  0  0
  4 13  1  0
  4 22  1  0
 11 10  2  0
 11 17  1  0
 10 16  1  0
 16 19  2  0
 19 15  1  0
 19 20  1  0
  2  5  2  0
  9 14  2  0
  9 12  1  0
 15  3  2  0
  6 18  2  0
  6  3  1  0
 18 21  1  0
 18 20  1  0
 14 13  1  0
 14 24  1  0
  5 21  1  0
  5 24  1  0
  1 12  1  0
 17 20  2  0
 12  7  2  0
  7  8  1  0
  8 13  2  0
 22 23  1  0
 23 24  1  0
M  END
